Geom Title=update_osX
Program Version=6.10
Viewing Rectangle= 575047.027898 , 577284.296102 , 172267.868124 , 170035.524276 

River Reach=Mura            ,Mura            
Reach XY= 19 
     575068.9619172181.177100001     575241.6028     172151.4114
     575492.9575     172072.0363     575757.5414171972.817299999
     576002.2814     171886.8276     576223.8704171794.223200001
     576385.9281171701.618899999     576491.7616     171622.2437
     576597.5951     171516.4102     576700.1214171394.040100001
     576799.3403171212.138699999     576855.5644171093.075999999
     576915.0958170874.794299999     576954.7834     170702.8148
      576984.549     170557.2937     577034.1585170388.621400001
     577093.6899      170272.866     577179.6796     170143.8814
     577262.3621     170057.8916
Rch Text X Y=575617.31195,171650.355725
Reverse River Text= 0 

Type RM Length L Ch R = 1 ,3266.039,101.99,101.62,101.31
XS GIS Cut Line=2
575131.343160009172231.175116744575112.489220613172114.693720302
Node Last Edited Time=déc/20/2021 09:02:57
#Sta/Elev= 71 
      15  209.72      16  209.73      17  209.65      18  209.38      19  209.05
      20  208.75      22  208.13      23  207.99      24  207.94      25  207.93
      26  207.94      27  207.96      28  207.99      30  208.17      31   207.4
      32  206.88    32.4  206.81   34.47  206.48   35.47  205.85   36.06  205.33
    36.2  205.11   36.52  204.61   40.67  204.07   43.14  203.96   45.92  203.87
   48.17  203.81   50.82  203.77   53.39  203.75   56.22  203.79   59.04  203.84
   61.87  203.86   64.69  203.87   67.51  203.91   70.34  203.96   72.25  203.96
   75.05  203.98   77.79     204   79.91  203.98   82.02     204   84.13  203.96
   86.24  203.96   88.35  203.95   90.46   203.9   92.13  203.94   93.79  203.97
   95.45  203.93   97.12     204   99.22  204.03  101.91  203.89   104.2  203.94
  106.49  203.92  108.77  203.83  111.07  203.86  113.14  203.77  115.22  203.64
  117.17  203.67  118.92  203.69  120.69  203.58  122.27  203.41  123.66  203.58
  124.02  203.93  125.43  205.32  126.43  205.57  127.43  206.35  128.43  206.49
  129.43  207.02  130.43  207.25  131.43  207.42  132.43  207.53  133.43  207.41
  134.43   207.4
#Mann= 3 ,0,0
      15    .045       0      15   .0272       0  132.43    .045       0
Bank Sta=15,132.43
XS Rating Curve= 0 ,0
XS HTab Starting El and Incr=203.56,0.3, 21 
XS HTab Horizontal Distribution= 5 , 5 , 5 
Exp/Cntr=0.3,0.1

Type RM Length L Ch R = 1 ,3164.414,104.63,100.24,95.66
XS GIS Cut Line=2
575231.946238493172213.795008553575212.682439621172100.413788373
Node Last Edited Time=déc/20/2021 09:02:57
#Sta/Elev= 66 
      25  209.82      26  209.71      27  209.61      28  209.42      29  209.12
      30  208.79      31   208.5      32  208.33      34  208.11      35  208.01
      36  207.88      37   207.7      38  207.09   39.69  207.08   41.03  207.07
   42.96  206.02   43.75  205.18   44.01  205.08   44.33  204.64   48.64  204.27
    51.5  204.21   53.95  204.09   55.67  204.11   57.43  204.05   59.55  203.99
    61.7  203.95   63.84  203.95   65.99  203.85   68.48  203.87   70.97  203.86
   73.45  203.93   75.94  203.98   77.49  203.95   79.04  203.96   80.58  203.92
   82.12  203.92   83.66  203.86   85.21  203.86   86.75  203.84   88.29  203.76
   91.25  203.85   93.41  203.76   95.57   203.7   97.73  203.62   99.89  203.53
  101.75  203.52  103.62  203.49  105.48  203.46  107.34  203.47   109.2  203.45
  111.07  203.36  112.93  203.39  114.79  203.41  117.09  203.53  119.39  203.61
   121.7   203.8  123.99  203.93  126.84  203.95  128.57  204.09  130.29  204.17
  131.69  204.46  132.74  204.69  137.04  205.61  138.04  206.49  139.04  206.77
  140.04  206.83
#Mann= 3 ,0,0
      25    .045       0      25   .0272       0  140.04    .045       0
Bank Sta=25,140.04
XS Rating Curve= 0 ,0
XS HTab Starting El and Incr=203.51,0.3, 54 
XS HTab Horizontal Distribution= 5 , 5 , 5 
Exp/Cntr=0.3,0.1

Type RM Length L Ch R = 1 ,3064.175,133.76,128.14,122.43
XS GIS Cut Line=2
575332.074294987172179.364013337575303.422822735172072.133906543
Node Last Edited Time=déc/20/2021 09:02:57
#Sta/Elev= 62 
      25  209.48      26  208.87      27  208.27      28  207.79      29  207.42
      30  207.29      31  207.05      32  206.65   32.73  206.48   34.71  206.01
   35.78     205    35.9  204.86   36.13  204.69   41.35  203.78   44.18  203.88
   46.38  203.98    48.7  203.97   51.03  204.02   53.35  204.02   55.68  204.05
   58.35  203.93   61.04  203.93   63.72  203.91   66.41  203.88   69.08  203.81
   71.76   203.8   74.45  203.75   77.12  203.59   79.81   203.6   82.49  203.51
   85.17  203.44   90.53  203.34   93.21  203.32   95.89  203.29   98.58  203.19
  101.08  203.25  102.62  203.22  104.59   203.3  106.58  203.29  108.34  203.37
  110.09  203.47  111.86  203.54  113.62   203.7  115.34  203.66  117.07  203.67
   118.8   203.8  120.52  203.78  123.33  204.94  124.21  205.15  124.33  205.18
  125.33  205.43  126.33  205.94  127.33  206.49  128.33  206.94  129.33  207.15
  130.33  207.38  131.33  207.45  132.33  207.45  133.33  207.68  134.33  207.87
  135.33  207.96  136.33   208.1
#Mann= 3 ,0,0
      25    .045       0      25   .0272       0  136.33    .045       0
Bank Sta=25,136.33
XS Rating Curve= 0 ,0
XS HTab Starting El and Incr=203.34,0.3, 57 
XS HTab Horizontal Distribution= 5 , 5 , 5 
Exp/Cntr=0.3,0.1

Type RM Length L Ch R = 1 ,2936.030,71.36,72.52,73.79
XS GIS Cut Line=2
575457.246786432172129.852917792       575415.39       172027.83
Node Last Edited Time=déc/20/2021 09:02:57
#Sta/Elev= 133 
      26  209.39      27  209.12      28  209.12      29  208.55      30  207.36
   31.03  207.27   32.99   207.1    35.7  206.29   37.07  205.43   38.12  204.75
   38.33  204.66   38.84  204.33   41.26  203.85   41.91  203.77    42.4  203.72
   43.64  203.62   44.26   203.6    44.8  203.72   45.33  203.71   45.87   203.8
   46.42   203.8    46.8  203.93   47.43  203.91   47.86  203.84   48.66  203.99
   49.13  204.03   49.68  204.01   50.11  203.56   51.12   203.3   51.67  203.27
   52.23  203.27    52.8  203.25   53.36   203.2   54.08  203.25    54.8  203.27
   55.51  203.27   56.23  203.28   56.94  203.29   57.66  203.31   58.37  203.31
   59.08  203.28    59.8  203.33   60.51  203.37   61.95  203.41   62.67  203.38
   63.38  203.45    64.1  203.44   64.81  203.49   65.62  203.47   66.44  203.43
   67.25  203.42   68.06   203.4   68.87  203.39   69.68  203.36    70.5  203.35
   71.46   203.4   72.21  203.31   73.05  203.32   73.88  203.29   74.72   203.3
   75.56   203.3    76.4  203.31   77.24  203.34   78.07  203.29   78.91   203.3
   79.45  203.32   79.98  203.34   80.52  203.36   81.06  203.35    81.6  203.39
   82.13   203.4   82.68  203.42   83.21  203.47   84.65  203.42   85.36  203.43
   86.08  203.44    86.8  203.43   87.52  203.39   88.24  203.42   88.96  203.34
   89.68   203.4   90.39  203.43   91.12   203.4   91.84  203.41   92.55  203.45
   93.27  203.44   93.99  203.39   94.71  203.45   95.16  203.45   96.12  203.42
   97.09  203.41   98.05  203.47   99.02  203.49   99.98  203.48  100.95  203.48
  101.92  203.51  102.88  203.52  103.85  203.58  104.81  203.62  105.78  203.62
  106.75  203.65  107.71  203.66  108.68  203.68  109.65  203.68  110.61  203.69
  111.56  203.73  112.52  203.81  113.47  203.82  114.43   203.9  115.39   203.9
  116.26  204.53  116.31  204.53  117.26  204.61  118.26  204.79  119.26  205.13
  120.26  205.95  121.26  206.48  122.26   206.4  123.26  206.78  124.26  206.93
  125.26  207.18  126.26  207.33  127.26  207.64  128.26  207.79  129.26  208.04
  130.26   208.6  131.26  209.21  132.26  210.14  133.26   210.9  134.26  211.66
  135.26  211.45  136.26  212.48  136.53  213.19
#Mann= 3 ,0,0
      26    .045       0      26   .0272       0  136.53    .045       0
Bank Sta=26,136.53
XS Rating Curve= 0 ,0
XS HTab Starting El and Incr=203.35,0.3, 33 
XS HTab Horizontal Distribution= 5 , 5 , 5 
Exp/Cntr=0.3,0.1

Type RM Length L Ch R = 1 ,2863.510,98.18,100.5,103.55
XS GIS Cut Line=2
575522.806143634172102.025116235     575482.1968     171994.3632
Node Last Edited Time=déc/20/2021 09:02:57
#Sta/Elev= 62 
      31  211.81   32.37   211.4   61.59  202.77    63.1  202.72   64.61  202.76
   66.13  202.75   67.64  202.76   70.24  202.84      73  203.05   75.64  203.15
   77.33  203.09   79.09  203.03   81.84  203.26   84.16  203.29   86.49  203.31
   88.84  203.49   90.19   203.4   91.82   203.5   93.44  203.49   95.07  203.54
   96.69   203.6   99.69  203.42  101.18  203.51  102.71  203.56  103.75  203.57
  106.34  203.52  108.14  203.61  110.08  203.63  112.16  203.67  114.25  203.73
  116.14   204.4  117.14  204.39  118.14   204.4  119.14  204.41  119.84  204.46
  120.14  204.48  121.14  204.67  122.14  205.28  123.14  205.28  124.14  206.07
  125.14  206.45  126.14   206.6  127.14  206.73  128.14  207.01  129.14  207.89
  130.14  208.35  131.14  208.66  132.14  208.77  133.14  208.83  134.14  209.84
  135.14  210.81  136.14  211.74  137.14  211.68  138.14  211.59  139.14  211.59
  140.14  211.53  141.14  211.52  142.14  211.51  143.14  211.49  144.14  211.46
  145.14  211.43  145.21  211.43
#Mann= 3 ,0,0
      31    .045       0      31   .0272       0  136.14    .045       0
Bank Sta=31,136.14
XS Rating Curve= 0 ,0
XS HTab Starting El and Incr=202.87,0.3, 30 
XS HTab Horizontal Distribution= 5 , 5 , 5 
Exp/Cntr=0.3,0.1

Type RM Length L Ch R = 1 ,2763.015,103.81,100.94,97.48
XS GIS Cut Line=2
575617.607009373172077.048910058575585.470885288171972.890209154
Node Last Edited Time=déc/20/2021 09:02:57
#Sta/Elev= 125 
      12  209.19      13   209.1      14  208.71      15   208.4      16  208.07
      17  207.76      18  207.61      19  207.25      20  206.73      21  205.87
   21.36   205.7      22  205.39   22.38  206.74   24.02  205.56   25.56  204.83
   27.28  204.07   27.87  203.98   28.82  203.81   29.69  203.66   31.34  203.63
    32.2  203.58   34.28  203.46   34.98  203.48   35.69  203.51   36.38  203.47
   37.08  203.43   37.94  203.46   38.98  203.37   40.24  203.21   41.02  203.08
   41.88   202.8   42.83  202.77   44.71  202.73   45.66  202.68    46.6  202.62
   47.54  202.59   48.49  202.58   49.43  202.52   50.25  202.56   51.06  202.58
   51.89   202.6   52.71  202.56   53.53  202.61   54.34  202.64   55.98  202.58
    56.5  202.63    57.2  202.66   57.78  202.64   58.53  202.62   59.52  202.71
   60.51  202.76   61.49  202.81   62.48  202.88   63.18  202.87   63.88  202.88
   64.58  202.86   65.28  202.83   66.21  202.95   67.14  202.95   68.08  202.97
   69.01  203.01   69.93  203.03   70.86  203.05    71.8  203.03   72.64  203.08
   73.42  203.08   74.11  203.12    75.2  203.11   76.18  203.11   76.88  203.14
   77.58  203.16   78.28  203.17   78.98  203.21   79.68  203.21   80.38  203.25
   81.08  203.31   81.83   203.3   82.57  203.28   83.32  203.25   84.06   203.3
   84.82  203.34   85.56  203.31    86.3  203.36    87.8  203.41   88.55  203.42
   89.29  203.45   90.04  203.45   90.79  203.49   91.54  203.48   92.28  203.45
   93.03  203.45    93.6  203.49   94.18  203.52   94.76  203.53   95.33  203.58
   95.91  203.61   96.48  203.62   97.05  203.67   97.63  203.71    98.2  203.71
   98.77   203.7   99.91   203.7  100.49  203.72  101.07  203.68  102.21  203.64
  103.35  203.64  103.92  203.68  104.49  203.66  105.06  203.63  106.13  204.75
  107.13  204.94  108.13  204.95  108.14  204.95  109.13  205.08  110.13  205.17
  111.13  205.28  112.13  205.22  113.13  205.41  114.13  205.49  115.13  205.66
  116.13  206.12  117.13  206.96  118.13  207.75  119.13  208.14  120.13  208.26
#Mann= 3 ,0,0
      12    .045       0      12   .0272       0  120.13    .045       0
Bank Sta=12,120.13
XS Rating Curve= 0 ,0
XS HTab Starting El and Incr=202.67,0.3, 22 
XS HTab Horizontal Distribution= 5 , 5 , 5 
Exp/Cntr=0.3,0.1

Type RM Length L Ch R = 1 ,2662.072,75.5,77.74,80.24
XS GIS Cut Line=2
575719.466506857172050.355325628575679.250713384171947.965166857
Node Last Edited Time=déc/20/2021 09:02:57
#Sta/Elev= 141 
       7  208.84       8  208.63       9  208.26      10  207.93      11  207.47
      12  207.31      13  207.25      14  207.23      15  207.24      16  207.25
      17  207.25      18  207.26      19  207.25      20  207.26      21  207.28
      22  207.21      23     207      24  206.68      25  206.35      26  205.96
      27  205.35   27.23  205.33   29.56   205.1   31.08  203.96   31.44  203.55
   32.05  203.48   33.96  203.45   34.94  203.46   35.66  203.41   36.45  203.41
      37   203.4   37.54  203.43   38.09  203.36   38.62  203.38   39.18  203.38
   39.72  203.37   40.44  203.41   41.27  203.31   42.26  203.18    42.9  203.06
   44.06  203.03      45  202.94    45.6  202.81   46.24  202.82   47.12  202.86
   47.69  202.84   48.27  202.82   48.86  202.79   49.44  202.77   50.02   202.7
    50.6  202.66   51.18  202.64   51.76  202.61   53.04  202.61   53.66  202.64
    54.3  202.66   54.94  202.63   55.57  202.61    56.2  202.63   56.83  202.61
   57.47  202.62    58.1  202.65   58.74  202.66   59.37  202.66   60.01  202.67
   60.64  202.65   61.27  202.61   61.91  202.59   62.84  202.63   63.78   202.7
   64.71  202.72   65.65  202.72   66.58  202.78   67.52  202.77   68.45  202.79
   69.39  202.79   70.32  202.84   71.25  202.79   72.19  202.83   73.12  202.82
   74.05  202.82   74.99  202.87   75.92  202.86   76.86  202.93   77.55   202.9
   78.23  202.92   78.92  202.89   79.61  202.88   80.31  202.91      81   202.9
   81.68  202.89   82.37  202.91   83.06  202.89   83.75  202.94   84.44  202.95
   85.13  202.96   85.82  202.95   86.51  202.99    87.2     203   87.88     203
   88.81  202.99    89.5  202.99   90.19  202.98   90.88  203.04   91.56  203.03
   92.25  203.05   92.94  203.02   93.63  203.04   94.32  203.05   95.01  203.06
    95.7  203.04   96.39  203.08   97.08  203.08   97.77  203.03   98.45  203.05
   99.14  203.02   99.87  203.04  100.59  203.06  101.33  203.11  102.05   203.1
  102.77  203.15   103.5  203.17  104.22  203.21  104.95  203.23  105.51   203.2
  106.07  203.21  106.63  203.18  107.19  203.16  107.75  203.18  108.32  203.16
  108.88  203.18   109.7  203.25  109.78  203.31   110.2  203.59  110.58  203.97
   111.6  205.67   112.6  206.26   113.6  206.51   114.6   206.7   115.6  207.43
   116.6  207.85
#Mann= 3 ,0,0
       7    .045       0       7   .0272       0   116.6    .045       0
Bank Sta=7,116.6
XS Rating Curve= 0 ,0
XS HTab Starting El and Incr=202.74,0.3, 20 
XS HTab Horizontal Distribution= 5 , 5 , 5 
Exp/Cntr=0.3,0.1

Type RM Length L Ch R = 1 ,2584.336,128.58,120.51,119.76
XS GIS Cut Line=2
575789.066469753172024.198532583575753.845363116171916.827830011
Node Last Edited Time=déc/20/2021 09:02:57
#Sta/Elev= 136 
       8  208.86       9  208.48      11  207.86      12  207.51      13  207.43
      14  207.38      15  207.38      16  207.35      17  207.34      18  207.32
      19  207.32      20  207.33      21   207.3      22  207.14      23  206.91
      24  206.91      25  206.65      26  206.32   26.57  206.09      27  205.91
      28  205.38      29  204.74   29.73  205.19   31.12  204.11   31.87   203.9
    32.3  203.59   32.85  203.53    33.4  203.41   34.52  203.26   35.66  203.23
   36.98  203.16   37.49   203.1   38.14  203.15   38.79  203.18   39.44  203.17
   40.09  203.16   41.39  203.21   42.04  203.19   42.69  203.23   43.69  203.11
   44.41  202.88   45.14  202.69   46.14  202.65   47.11   202.7   48.09  202.72
   49.06  202.78   50.04  202.84   50.87   202.8   51.69  202.77   53.34  202.77
   54.17  202.78   54.99  202.84   55.81  202.83   56.64  202.84   57.46  202.79
   58.29  202.78   59.94  202.78   60.76  202.77   61.59  202.79   62.41  202.78
   63.24  202.74    63.8   202.8   64.36  202.79   64.92   202.8   65.49  202.79
   66.05  202.82   66.61  202.79   67.17  202.86   67.74  202.89   68.55  202.85
   69.37  202.86   70.18  202.86   70.98  202.81   71.79   202.8   72.61  202.79
   73.42  202.78   74.23  202.77   74.94  202.82   75.64   202.9   76.61  202.85
   77.78  202.85   78.65  202.83   79.51  202.84   80.37  202.88   81.84  202.87
   82.45  202.87   83.05  202.85   83.66  202.89   84.27  202.82   84.87  202.84
   85.48  202.84   86.09  202.79   86.65  202.82   87.77  202.84   88.34  202.88
    88.9  202.85   89.46  202.86   90.02  202.84   90.59  202.83   91.15  202.86
   91.71  202.81   92.27  202.82   92.84  202.84   93.39  202.87   93.96  202.86
   94.52  202.81   95.09  202.79   95.97  202.83   96.85  202.83   97.73  202.84
   98.61  202.86   99.49  202.87  100.37  202.84  101.26  202.85  102.14  202.87
  103.01  202.89   103.9  202.86  104.78  202.92  105.66  202.97  106.54  202.93
  107.43  202.98   108.3  202.99  109.18     203   109.9  202.97  110.83  202.97
  111.79  202.91  112.54  203.21  113.14   204.7  114.14  205.02  115.14  205.58
  116.14  205.82  117.14  206.37  118.14  207.04  119.14  207.51  120.14   207.7
  121.14  207.75
#Mann= 3 ,0,0
       8    .045       0       8   .0272       0  121.14    .045       0
Bank Sta=8,121.14
XS Rating Curve= 0 ,0
XS HTab Starting El and Incr=202.8,0.3, 20 
XS HTab Horizontal Distribution= 5 , 5 , 5 
Exp/Cntr=0.3,0.1

Type RM Length L Ch R = 1 ,2463.823,100.59,100.63,100.77
XS GIS Cut Line=2
575899.742011454171972.161716434575864.441970394171871.152840774
Node Last Edited Time=déc/20/2021 09:02:57
#Sta/Elev= 123 
      24  207.11      25  206.97      26   206.7      27  206.57      28  205.92
   29.53   205.8   30.84   205.7   32.59  205.04   33.71  204.19   34.73  203.69
   35.32  203.23   35.75  203.18   38.49  202.77    39.2  202.73   39.92  202.66
   40.51   202.6   41.16  202.64    41.7  202.64   42.24  202.68   42.78  202.73
   43.32  202.83   43.86  202.88   44.39  202.89   45.19  202.94   46.08  203.05
   46.93  203.03   47.92  202.98   48.88  203.06   49.83   203.1   50.78  203.17
   51.72  203.21   52.51  203.17    53.3  203.16   54.09   203.1   54.87  203.02
    55.8  203.05   56.73  203.01   57.66  203.05   58.58  203.02   59.51  203.04
   60.42  203.06   61.35  203.09   62.27  203.12   63.11  203.05   63.93     203
   64.75  202.96   65.58  202.94   66.17  202.96   66.78  202.95   67.37  202.96
   67.98  202.95   68.58  202.96   69.17  202.96   69.78  202.95   70.38  202.94
   70.97  202.89   71.58  202.89   72.18  202.91   72.77  202.88   73.38  202.84
   73.98  202.86   74.57  202.88   75.18  202.91   76.01  202.84   76.84  202.83
   77.67  202.81    78.5   202.8   79.33  202.81   80.16  202.77   80.99  202.76
   81.82  202.71   83.57  202.74   84.42  202.71   85.26  202.73   86.12   202.7
   86.96  202.67   87.81  202.64   88.66  202.64    89.5  202.67   90.35  202.65
   91.19  202.64   92.04  202.62   93.74  202.56   94.58  202.54   95.43  202.53
   96.27  202.47   97.07  202.51   97.86  202.49   98.66  202.49   99.45  202.46
  100.24  202.48  101.04  202.51  101.83   202.5  102.63  202.54  103.62  202.47
   104.6  202.45  105.59  202.42  106.58  202.43  107.95  202.44  108.94  202.43
  109.93  202.43   111.8  202.42  112.68  202.41  113.58  202.47  114.46  202.53
  115.09  202.46  115.72  202.38  116.21  202.41  116.29  202.42  116.87   202.5
  117.72  202.97  117.78  203.19  119.05  205.07  120.05  205.54  121.05  206.07
  122.05  206.43  123.05  206.99  124.05  207.33  125.05  207.63  126.05  207.65
  128.05  207.65  129.05  207.77  130.05  208.02
#Mann= 3 ,0,0
      24    .045       0      24   .0272       0  130.05    .045       0
Bank Sta=24,130.05
XS Rating Curve= 0 ,0
XS HTab Starting El and Incr=202.53,0.3, 21 
XS HTab Horizontal Distribution= 5 , 5 , 5 
Exp/Cntr=0.3,0.1

Type RM Length L Ch R = 1 ,2363.189,102.12,100.29,99.21
XS GIS Cut Line=2
575998.513117329171950.043579721575959.767338884171838.588512029
Node Last Edited Time=déc/20/2021 09:02:57
#Sta/Elev= 151 
       8  208.44       9  208.14      10  207.65      11  207.38      12  207.21
      13  207.03      14  207.02      15  207.04      16  207.05      17  207.07
      18   207.1      19  207.12      20   207.2      21  207.21      22   207.1
      23  207.07      24  206.68      25  206.57      26  206.33      27  205.96
      28  205.52   29.24  205.25   30.61  204.95   32.46  203.95   33.35  203.55
   33.56  203.33   34.22  203.33   36.27     203    36.8  203.08   37.34  203.16
   38.11  203.21   39.25  203.18    40.1  203.14   40.92   203.1   41.76  203.06
   42.49  203.06    43.2  203.07   43.92  203.08   44.64  203.04   45.36  203.08
   46.08  203.06    46.8  203.07   47.51  203.11   48.04  203.06   48.55  203.02
   49.08  203.01   49.59  202.98   50.11  202.98   50.63  202.99   51.15  203.02
   51.67  203.01   52.19     203    52.7     203   53.22  203.01   53.74     203
   54.26  202.98   54.78     203   55.29  202.96   55.81  202.92   56.74  202.96
   57.66  203.01   58.59  203.04   59.51  203.03   60.44  203.04   61.36  203.08
   62.29  203.07   63.21  203.14   63.84  203.12   64.46  203.05   65.08  203.06
    65.7  203.05   66.33  203.06   66.94  203.03   67.57  203.06   68.19  203.07
   68.81  203.04   69.43  203.03   70.05  202.99    71.3  202.99   71.92  203.02
   72.54     203   73.17  203.04   73.92  203.01   74.68  202.98   75.44  202.97
    76.2  202.99   76.96  202.96   77.72  202.92   78.48  202.89   79.24  202.88
      80  202.84   80.76  202.79   81.51  202.74   82.28  202.73   83.03  202.71
    83.8  202.71   84.55  202.68   85.32   202.7   86.05  202.66   86.77  202.62
   87.51  202.56   88.24  202.56   88.97  202.51    89.7  202.49   90.43  202.41
   91.16  202.35    91.7  202.39   92.24   202.4   92.78  202.35   93.31  202.33
   93.85  202.33   94.39   202.3   94.92  202.28   96.01  202.28   97.24  202.21
   97.91  202.19   98.59   202.2   99.26   202.2   99.94  202.22  100.61  202.16
  101.29  202.12  101.96  202.13  102.64  202.12  104.15  202.11  104.83  202.08
   105.5  202.05  106.18  202.09  106.85  202.07  107.53  202.05  109.05  202.05
  110.69  202.04  111.46  202.09  112.25  202.11  113.03  202.11  113.81   202.1
  114.59  202.12  115.37  202.12  116.15  202.09  116.72  202.21  117.21  202.31
   117.3  202.33  117.46  202.62  118.98  204.38  119.98     205  120.98  205.85
  121.98  206.26  122.98  206.49  123.98  206.79  124.98  207.13  125.98  207.45
  126.98  207.52
#Mann= 3 ,0,0
       8    .045       0       8   .0272       0  126.98    .045       0
Bank Sta=8,126.98
XS Rating Curve= 0 ,0
XS HTab Starting El and Incr=202.19,0.3, 23 
XS HTab Horizontal Distribution= 5 , 5 , 5 
Exp/Cntr=0.3,0.1

Type RM Length L Ch R = 1 ,2262.898,54.34,52.04,51.28
XS GIS Cut Line=2
576095.566756135171920.076515843       576048.36       171792.74
Node Last Edited Time=déc/20/2021 09:02:57
#Sta/Elev= 169 
       8  208.49       9  208.42      10   208.3      11  208.08      12  207.59
      13  207.28      14  207.01      15  206.84      16  206.81      17  206.76
      18  206.68      19  206.58      20   206.4      21  206.09      22  206.09
      24  205.93      25  205.83      26  205.65      27  205.58      28  205.25
      29  205.13   31.54  204.65   31.73  204.61   32.52  204.28   33.32  203.95
   33.72  203.35   34.45  203.32   35.14   203.3   35.59   203.1   36.07  203.13
   36.99  203.23   38.38  202.99   38.67  202.98   39.87  203.02   41.19  203.03
   42.78  202.99   44.23  203.01      45   203.1   46.45  203.07   46.67   203.1
   47.72  203.24   48.86  203.27   50.28  203.32   51.33  203.43   51.94  203.41
   52.78  203.45   53.75  203.48   55.37   203.5   55.82  203.53   57.14  203.59
   57.52  203.64   59.06  203.61   60.64  203.56   61.72  203.43   62.35  203.37
   62.88  203.31   63.88  203.23    64.5  203.15   64.75  203.08   65.37  203.08
   66.12  203.06    66.9  203.07   67.11  203.07   67.63  203.02   68.14  202.96
   68.65  202.93   69.21  202.94   69.77  202.98   70.33  202.96   70.89  202.92
   71.45  202.91   72.01   202.9   72.57  202.87   73.12  202.86   73.69  202.85
   74.25  202.83    74.8  202.81   75.37  202.79   77.05  202.79    77.6  202.74
   78.18  202.79   78.77  202.83   79.35  202.82   79.92  202.86   80.51  202.84
   81.09  202.82   82.25  202.84   82.83  202.84   83.41  202.85      84  202.87
   84.58  202.86   85.16  202.91   85.74  202.93   86.32  202.91    86.9  202.96
   87.58   202.9   88.25   202.9   88.85  202.93   89.54  202.87    90.5  202.88
   91.45  202.94   92.02  202.86   92.58  202.78   93.14   202.8   93.71  202.77
   94.28  202.73   94.84  202.68   95.41  202.65   95.98  202.64   96.54   202.6
   97.11  202.53   97.67  202.54   98.23  202.51   99.94  202.42   100.5  202.35
  101.18  202.34  101.86  202.33  102.54  202.34  103.21  202.34  103.89  202.31
  104.57  202.29  105.25  202.27  105.92  202.23   106.6  202.21  107.28  202.19
  107.96  202.14  108.64   202.1  109.31   202.1  109.99  202.07  110.67  202.07
  111.35  202.12  111.93  202.05  112.52  202.02  113.11  202.03   113.7  201.97
  114.89  201.91  116.05  201.85  116.78  201.81   117.7  201.82  118.44  201.79
   121.2  201.76  121.94  201.72  122.67   201.7  123.41  201.65  124.15  201.66
  124.89  201.65  125.63  201.65  126.39  201.56  127.15  201.51  127.91  201.45
  128.67  201.41  129.43  201.25  130.19  201.14  130.96  201.09  131.72  201.03
  132.23  201.17  132.75  201.28  133.13  201.36  133.26  201.39  133.78   201.5
  134.57  201.83  136.12   203.8  137.12   204.7  138.12  205.05  139.12   205.7
  140.12  206.23  141.12  206.56  142.12  207.04  143.12  207.46
#Mann= 3 ,0,0
       8    .045       0       8   .0272       0  143.12    .045       0
Bank Sta=8,143.12
XS Rating Curve= 0 ,0
XS HTab Starting El and Incr=201.18,0.3, 24 
XS HTab Horizontal Distribution= 5 , 5 , 5 
Exp/Cntr=0.3,0.1

Type RM Length L Ch R = 1 ,2210.857,49.67,48.22,46.98
XS GIS Cut Line=2
576138.962963425171885.235042556576100.925821026171787.365192206
Node Last Edited Time=déc/20/2021 09:02:57
#Sta/Elev= 115 
      12  207.09      13  206.83   13.31  206.72      14  206.49      15   205.8
   15.41   206.3   16.55  205.81   17.77  204.41   19.39  203.56   19.66  203.27
   19.91  202.98   20.32  202.41   20.66  202.28   22.08  202.17   24.17  202.26
   25.68  202.57   27.62  203.13   28.88  203.26   29.35  203.34   30.08  203.37
    31.3  203.51    31.7  203.43   32.02  203.51   32.51  203.74   33.75  204.42
   34.21  204.43   34.52   204.6   35.32  204.63   37.11  204.21   37.45  203.51
   38.09  203.42   38.47   203.3   39.71  203.21   41.18  203.04   42.93  203.02
   45.42  202.93   48.56  202.86   51.15  202.85   53.63  202.81   55.32  202.75
   56.42  202.76   58.13  202.76   58.99  202.75   59.84  202.73    60.7  202.68
   61.56  202.67   62.41  202.63   63.27  202.68   64.12  202.63   64.98   202.6
   65.83  202.57   66.68  202.56   67.53  202.57   68.39  202.54   69.24  202.57
   70.15  202.47   71.05  202.41   71.87  202.44   72.69  202.45   73.52  202.38
   74.33  202.36   75.16  202.34   75.98  202.32    76.8  202.31   77.62  202.32
   78.44  202.31   79.26  202.25   80.08  202.22   80.91  202.23   81.73   202.2
   82.55  202.18   83.37  202.12    84.2  202.16   84.79  202.13   85.37  202.11
   85.96  202.05   86.55  201.98   87.13  202.01   87.72     202   88.31  201.94
   88.92   201.9   89.66  201.86   90.47   201.9   91.09  201.87   91.72  201.89
   92.35  201.77   93.04  201.85   93.72  201.86   94.41  201.84   95.09  201.87
    95.8  201.85    96.5  201.81   97.19  201.78   98.34  201.81   99.44  201.73
   99.95  201.68  100.44  201.73  100.94  201.78  101.93  201.74  102.92  201.75
  103.91  201.74   104.9  201.78  106.05  201.79  106.91   201.8  107.77  201.84
  108.22  201.87  109.14     202  109.38  202.38  110.14  203.63  111.14  204.18
  113.14  205.22  114.14  205.75  115.14  206.04  116.14  206.15  117.14  206.74
#Mann= 3 ,0,0
      12    .045       0      12   .0272       0  117.14    .045       0
Bank Sta=12,117.14
XS Rating Curve= 0 ,0
XS HTab Starting El and Incr=201.83,0.27, 20 
XS HTab Horizontal Distribution= 5 , 5 , 5 
Exp/Cntr=0.3,0.1

Type RM Length L Ch R = 1 ,2162.639,105.26,101.57,98.25
XS GIS Cut Line=2
576185.710040122171867.235575454576144.035079813171769.277799856
Node Last Edited Time=déc/20/2021 09:02:57
#Sta/Elev= 132 
       6  208.06       7   207.7       8  207.48       9  207.15      10  206.88
      11  206.82      12  206.84      13  206.86      14  206.84      15  206.87
      16  206.87      17  206.89      18  206.89      19  206.88      20  206.86
      21  206.83      22  206.86      23  206.88      24  206.88      25   206.8
      26  206.58      27  206.39      28  205.92      29   205.2   29.32  204.65
      30  203.47    31.5   203.8   32.56  203.01   32.96  202.99   33.39  202.75
   34.08  202.41   34.62  202.38   35.28  202.47   35.97  202.63   36.87  202.72
   37.63  202.76   39.28   202.9   40.77  202.95   42.27  203.01   43.65   203.1
   45.44  203.15   47.08  203.18   48.35  203.26   49.75  203.26   51.17  203.27
   52.59   203.2   54.01  203.18   55.93  203.16   58.23  203.08   60.13  203.06
   61.76  202.97   63.35  202.93   66.13  202.91   66.75   202.9   67.38  202.87
   67.99  202.82   68.61  202.78   69.23  202.82   69.86  202.78   70.47  202.76
   71.09  202.72   72.33  202.68   73.58  202.67   74.19  202.65   74.81  202.63
   75.44  202.62   76.06  202.58   76.67  202.57   77.29  202.53   77.92   202.5
   78.54  202.51   79.16  202.49   79.78  202.49    80.4  202.44   81.02  202.43
   81.64  202.41   82.25  202.41   82.87  202.37    83.5  202.32   84.12  202.27
   84.74  202.26   85.36  202.23   86.79  202.26   87.59  202.22    88.4  202.16
    89.2  202.14   90.82  202.14   91.62  202.09   93.21  202.04      94     202
   94.79  201.94   95.58   201.9   96.15  201.93   96.73  201.91   98.46  201.91
   99.03  201.92  100.18  201.94  101.02  201.87  101.87  201.84  102.71  201.82
  103.55   201.8   104.4  201.81  105.24  201.72  106.09  201.71  107.69   201.7
  108.45  201.72  109.22  201.74  109.98  201.74  110.74   201.7   111.5  201.69