Flow Title=calib
Program Version=6.10
Number of Profiles= 1 
Profile Names=PF 1
River Rch & RM=Mura,Mura            ,3266.039
 343.814
Boundary for River Rch & Prof#=Mura,Mura            , 1 
Up Type= 0 
Dn Type= 3 
Dn Slope=0.0015
DSS Import StartDate=
DSS Import StartTime=
DSS Import EndDate=
DSS Import EndTime=
DSS Import GetInterval= 0 
DSS Import Interval=
DSS Import GetPeak= 0 
DSS Import FillOption= 0 
