Flow Title=unsteady_flow
Program Version=6.10
Use Restart= 0 
Boundary Location=Mura            ,Mura            ,3266.039,        ,                ,                ,                ,                                
Interval=10MIN
Flow Hydrograph= 1994 
   339.7   339.8   339.8   339.8   339.8   339.8   339.9   339.9   339.9   339.8
   339.7   339.6   339.5   339.5   339.4   339.4   339.4   339.3   339.3   339.3
   339.2   339.2   339.2   339.2   339.2   339.2   339.2   339.2   339.2   339.2
   339.2   339.3   339.3   339.3   339.3   339.4   339.4   339.4   339.5   339.5
   339.6   339.6   339.6   339.7   339.7   339.8   339.8   339.9   339.9     340
   340.1   340.1   340.2   340.2   340.3   340.4   340.4   340.5   340.6   340.6
   340.7   340.8   340.8   340.9     341   341.1   341.1   341.2   341.3   341.4
   341.5   341.5   341.6   341.7   341.8   341.9     342   342.1   342.2   342.3
   342.4   342.5   342.6   342.7   342.8   342.9     343   343.1   343.2   343.3
   343.4   343.5   343.7   343.8   343.9     344   344.1   344.2   344.4   344.5
   344.6   344.7   344.8     345   345.1   345.2   345.3   345.4   345.6   345.7
   345.8   345.9     346   346.1   346.3   346.4   346.5   346.6   346.7   346.8
   346.9   347.1   347.2   347.3   347.4   347.5   347.6   347.7   347.8   347.9
     348   348.1   348.2   348.3   348.4   348.5   348.6   348.7   348.8   348.9
     349   349.1   349.2   349.2   349.3   349.4   349.5   349.6   349.7   349.8
   349.8   349.9     350   350.1   350.2   350.2   350.3   350.4   350.5   350.6
   350.6   350.7   350.8   350.8   350.9     351   351.1   351.1   351.2   351.3
   351.3   351.4   351.5   351.5   351.6   351.7   351.7   351.8   351.9   351.9
     352     352   352.1   352.2   352.2   352.3   352.3   352.4   352.5   352.5
   352.6   352.6   352.7   352.7   352.8   352.8   352.9   352.9     353   353.1
   353.1   353.2   353.2   353.3   353.3   353.4   353.4   353.5   353.5   353.6
   353.6   353.7   353.7   353.8   353.8   353.9   353.9     354     354   354.1
   354.2   354.2   354.3   354.4   354.5   354.6   354.7   354.8   354.9     355
   355.2   355.3   355.5   355.7   355.9   356.1   356.4   356.6     357   357.3
   357.6     358   358.5 358.938  359.46 360.009 360.589 361.222 361.927 362.703
 363.535 364.407 365.323 366.319 367.421 368.626 369.912 371.254 372.657 374.159
 375.789 377.541 379.386 381.297 383.285 385.404 387.688 390.127 392.682 395.322
 398.051 400.918  403.95 407.132 410.423  413.79 417.242 420.819 424.538  428.38
  432.31 436.292 440.295 444.296 448.284 452.256 456.216 460.158 464.045 467.837
 471.522  475.12 478.657 482.153  485.61 489.025 492.401 495.747 499.074  502.38
 505.647 508.852 511.995  515.09 518.154 521.192 524.192 527.145 530.054  532.93
 535.782 538.609 541.385 544.091 546.732 549.322 551.878 554.395 556.832 559.162
 561.393 563.549 565.658 567.716 569.688  571.55 573.313 575.004 576.648 578.236
 579.718 581.068 582.299 583.444 584.531 585.545 586.418 587.114 587.651 588.072
 588.419 588.677 588.776  588.68 588.411 588.016 587.541 586.992 586.338 585.561
 584.677 583.717 582.708 581.669 580.608  579.53 578.439 577.341 576.238 575.136
 574.048 572.978 571.927 570.889  569.86 568.846 567.866 566.929 566.033 565.167
 564.321 563.496 562.706 561.963 561.261 560.589 559.938 559.299 558.671 558.051
 557.438 556.829 556.224 555.619 555.013 554.403 553.789 553.173 552.555 551.936
 551.315 550.691 550.066 549.439 548.811 548.184 547.561 546.943 546.332 545.725
  545.12  544.52 543.927 543.344 542.772 542.206 541.646 541.092 540.553 540.035
 539.536 539.052 538.578 538.114 537.664 537.234 536.823 536.426 536.037 535.657
 535.285 534.925 534.575 534.233 533.896 533.561 533.229 532.897 532.565 532.234
 531.903 531.571 531.235 530.893 530.546 530.193 529.838  529.48 529.117 528.746
 528.369 527.986   527.6 527.211 526.817 526.418 526.014 525.606 525.195 524.784
 524.376 523.974 523.578 523.188 522.801 522.418 522.048 521.697 521.364 521.045
 520.735 520.433 520.143 519.867 519.605 519.355 519.111 518.872 518.637 518.404
 518.175 517.947 517.721 517.495 517.265 517.029 516.788 516.542 516.292  516.04
  515.78 515.509 515.228 514.939 514.645 514.345 514.035  513.71 513.371  513.02
 512.662 512.298 511.921 511.529  511.12 510.698 510.269 509.832 509.384 508.921
 508.443 507.953 507.456 506.954 506.444 505.927 505.402 504.872 504.337 503.802
 503.268 502.737 502.211 501.688 501.167 500.651 500.147 499.662 499.198 498.749
 498.311 497.885 497.481 497.112 496.778 496.473 496.187 495.915 495.664 495.438
 495.239 495.061 494.896  494.74 494.591 494.449 494.313 494.182 494.054 493.928
  493.81   493.7 493.601  493.51 493.425 493.344 493.276 493.225 493.193 493.176
 493.169 493.172 493.201 493.268 493.376 493.516 493.678 493.859 494.075 494.344
 494.665 495.028  495.42  495.84 496.326  496.91 497.595  498.36 499.179 500.053
 501.041 502.199 503.529 504.995 506.553 508.187 509.947 511.877 513.976 516.203
 518.517 520.885 523.297 525.749 528.235 530.744 533.267 535.782 538.242 540.612
 542.896 545.112 547.284 549.407 551.435 553.341  555.13 556.834 558.482 560.074
 561.574 562.959 564.238  565.44 566.591 567.697 568.733 569.685 570.562 571.384
  572.17 572.929 573.653 574.337 574.986 575.611  576.22 576.818 577.401 577.969
 578.524  579.07  579.61 580.145 580.672 581.191 581.702 582.208  582.71 583.209
   583.7 584.182 584.657 585.126 585.591  586.05 586.496 586.925 587.338  587.74
 588.135 588.522 588.893 589.245 589.581 589.904  590.22 590.526 590.817 591.088
 591.343 591.585 591.819 592.045 592.259 592.457 592.643 592.819 592.989 593.154
 593.313 593.465 593.613 593.756 593.897 594.037 594.178 594.319 594.462 594.606
  594.75 594.894  595.04 595.187 595.336 595.485 595.634 595.783 595.929 596.071
 596.209 596.344 596.478 596.608 596.731 596.843 596.946 597.043 597.136 597.222
 597.297 597.356 597.403  597.44  597.47 597.493   597.5 597.488  597.46  597.42
 597.372 597.314 597.238 597.142 597.026 596.897 596.759  596.61 596.443 596.254
 596.045 595.822  595.59 595.348 595.086 594.803   594.5 594.183 593.857  593.52
 593.166 592.791 592.398  591.99 591.575 591.149 590.708 590.248 589.771 589.281
 588.784 588.278 587.758 587.221 586.668 586.104 585.533 584.955 584.364 583.758
 583.139  582.51 581.875 581.235 580.585 579.925 579.255 578.578 577.897 577.211
 576.516 575.811 575.096 574.374 573.647 572.916 572.176 571.427 570.668 569.903
 569.133  568.36 567.582 566.798  566.01 565.218 564.423 563.627 562.826 562.021
 561.212 560.399 559.584 558.768 557.949 557.128 556.304 555.478 554.651 553.823
 552.998 552.176 551.358 550.542 549.727 548.913 548.099 547.282 546.464 545.645
 544.825 544.003 543.179  542.35 541.518 540.682 539.845 539.007 538.168 537.331
 536.494 535.658 534.822 533.988 533.162 532.345 531.538 530.739 529.945 529.157
 528.381 527.622 526.878 526.147 525.425 524.712 524.019 523.356 522.722  522.11
 521.513 520.934 520.395 519.916 519.495 519.119 518.773 518.459 518.208 518.048
 517.978 517.978 518.023 518.117 518.307 518.635 519.098 519.666 520.303 521.011
 521.855 522.889 524.109 525.472  526.93 528.472 530.154 532.021 534.064 536.239
 538.501 540.818 543.184 545.595 548.041 550.514 553.001 555.473 557.865 560.139
 562.298 564.373  566.39 568.342  570.17 571.839 573.365 574.786 576.138  577.41
 578.539 579.489 580.277 580.948 581.542 582.059 582.453 582.697 582.809 582.824
 582.778 582.676 582.491  582.21 581.845 581.418 580.952 580.454 579.916 579.332
 578.709 578.057 577.388 576.705 576.006 575.289 574.557 573.814 573.064 572.308
 571.542 570.765 569.977 569.183 568.383 567.578 566.762 565.932  565.09 564.239
 563.382 562.518 561.644 560.757 559.857 558.948 558.033 557.113 556.186 555.251
 554.309 553.361 552.409 551.452 550.483 549.498 548.497 547.484 546.463 545.436
 544.398 543.347 542.283 541.211 540.132 539.048 537.959 536.862 535.758 534.649
 533.537 532.423 531.307 530.188 529.067 527.944  526.82 525.695 524.571 523.449
 522.327 521.208 520.088  518.97 517.853 516.738 515.625 514.513 513.403 512.294
 511.187 510.086  508.99 507.898 506.808 505.721 504.637  503.56 502.488 501.419
 500.354 499.291 498.231 497.177 496.128 495.084 494.042 493.003 491.967 490.938
 489.914 488.894 487.878 486.865 485.858 476.466 476.575 476.573 476.592 476.674
 476.748 476.668 476.392 475.962 475.435 474.853 474.266 473.772 473.465 473.367
  473.44 473.632 473.953 474.598 475.773 477.513 479.712 482.226 485.044 488.495
 492.917  498.34 504.555 511.303 518.569 526.826 536.457 547.399 559.316 571.872
 585.246 600.188 616.997 635.563 655.341 675.832 697.025 717.071 741.771 764.959
 787.135 811.195 836.576 861.595 885.196 905.977 925.497 937.418 949.562 966.599
 980.677 994.0311004.5991012.9391020.6051026.5951034.7511041.7591048.7731056.282
 1061.451066.3861070.1781073.5891077.232 1080.911083.7991085.9191088.1281090.689
1094.5951098.9821104.4951110.3571116.1381121.0041125.1331128.8581132.5011136.425
1142.5691148.6221154.3021160.1651165.7771170.4281176.2251182.245 1187.631192.205
1196.2711199.9311203.2241206.1321208.7361211.0861213.0711214.8141216.4481217.955
1219.318 1220.561221.7531223.0091224.5091226.323 1228.291230.1721231.8231233.532
1235.3821237.0861239.1611240.708 1241.661242.6981243.7071244.6791245.6111246.525
1247.413  1248.31249.1941250.0831250.9891251.8991252.8191253.7461254.6691255.584
1256.486 1257.371258.227 1259.051259.8181260.5291261.1751261.7491262.2551262.698
 1263.08  1263.41263.6571263.8481263.9831264.0661264.1221264.1681264.191  1264.2
1264.2071264.2251264.2711264.3481264.4681264.6471264.8971265.2321265.664  1266.2
 1266.82 1267.521268.3581269.3471270.4781271.7561273.1611274.7121276.4161278.265
 1280.261282.3931284.6491287.0371289.5751292.2461295.0561298.0161301.1261304.381
1307.783 1311.321314.9631318.7331322.6151326.597 1330.66  1334.81339.0021343.492
1348.021 1352.521357.0571361.5521366.1291370.8491375.6151380.4681385.4291390.517
1395.7461401.1291406.6961412.4731418.3981424.4861431.2521438.3011445.7491453.454
1461.3561469.546 1478.081486.9761496.2471505.812 1515.68 1525.821536.2141546.872
  1557.8 1569.071580.6891592.7771605.4661618.4941631.7881645.3191658.9721672.647
1686.198 1699.651712.8811725.9061738.6581751.1171763.1951775.0741786.6341797.748
1808.7071819.011 1828.471837.0451844.7541851.5651857.5121862.7391867.3521871.387
1874.9441878.1461881.0111883.5781885.8841887.9521889.8931891.6821893.5011895.187
1896.7451898.1721899.4971900.7371901.8041902.6591903.4731904.0761904.4891904.825
1904.9291904.8111904.6971904.2971903.791 1903.151902.2811901.3321900.1811898.876
1897.3351895.647  1893.71891.666 1889.421887.0211884.4591881.7411878.8221875.758
1872.5591869.231 1865.761862.1621858.4251854.6161850.7341846.7111842.6211838.439
1834.1131829.6711825.1171820.3981815.4441810.3021805.0121799.519 1794.161788.484
1782.5851776.5441770.3641764.0981757.7651751.3771744.9621738.5761732.0881725.688
 1719.281712.7791706.2361699.701  1693.21686.7461680.2911673.8521667.4651661.095
1654.7691648.4831642.2351636.0231629.8561623.7211617.6311611.587 1605.591599.643
1593.7461587.8971582.0811576.3291570.6161564.9581559.3441553.7811548.2671542.803
1537.3931532.0321526.7181521.4381516.1891511.0011505.8591500.768 1495.721490.732
1485.7531480.8341475.8231470.8461466.034 1461.34 1456.731452.1631447.6281443.119
1438.6341434.1821429.7591425.366 1421.031416.6621412.3341408.0211403.7221399.442
1395.1591390.8941386.6431382.4021378.1791373.9681369.7651365.5741361.3951357.118
1352.9591348.8211344.8681340.8221336.7521332.6741328.6071324.5531320.5211316.504
1312.5151308.5451304.5971300.6771296.7791292.9161289.0831285.2931281.5491277.829
1274.1611270.5491266.9761263.4271259.8981256.3941252.9151249.4731246.0741242.728
1239.4171236.1621232.9521229.7971226.6821223.5911220.5291217.5481214.7261211.852
1208.9831206.0171203.1241200.2181197.3391194.4731191.643 1188.841186.0591183.318
1180.6071177.9251175.2631172.6041169.9421167.2691164.7081162.2291159.583 1156.86
1154.1271151.4111148.6841145.9231143.1341140.3281137.5211134.7291131.933 1129.11
1126.2821123.4521120.5981117.6931114.7441111.773 1108.791105.8061102.788 1099.72
1096.7181093.6561090.5731087.5141084.4371081.3051078.1071074.8451071.5191068.222
1064.9721061.7141058.4371055.1231051.7811048.4151045.0551041.7171038.4151035.164
1031.9591028.8141025.7521022.7311019.7351016.836 1014.121011.4991008.8831006.269
1003.6581001.049 998.445 995.849  993.28 990.712 988.083 985.482 982.921 980.386
 977.883 975.423 972.994  970.63 968.298 965.984 963.685 961.401 959.121  956.84
  954.55 952.224 949.903 947.588 945.277  942.97  940.67 938.385 936.126   933.9
 931.704 929.536 927.384 925.248 923.133     921 918.836 916.657 914.477 912.305
 910.143 907.993  905.86 903.744 901.643 899.556 897.484 895.393 893.269 891.176
 889.115 887.057 885.047 883.107 881.226 879.389 877.579 875.796 874.064   872.4
 870.798 869.242 867.717 866.219 864.777 863.412 862.117 860.873 859.662 858.479
 857.345 856.276 855.262 854.295 853.358 852.434 851.499 850.536 849.546 848.535
  847.51 846.467 845.363 844.168 842.886 841.541 840.155 838.738 837.266 835.721
  834.11  832.45 830.759 829.049 827.327 825.594 823.854 822.109 820.362 818.615
 816.878 815.157 813.452  811.76 810.076 808.397 806.728 805.072 803.427 801.792
 800.162 798.536 796.918 795.311 793.715 792.127 790.543 788.966 787.406 785.874
 784.371 782.889 781.421 779.964  778.53  777.13 775.763 774.421 773.096 771.783
 770.487 769.217 767.973 766.747 765.533 764.328 763.136 761.962 760.805 759.662
 758.528   757.4 756.287 755.197 754.129 753.078 752.039 751.006 749.975 748.942
 747.906 746.867 745.826 744.784 743.733 742.669  741.59   740.5 739.402   738.3
 737.193 736.081 734.963 733.842 732.719 731.595 730.479 729.381   728.3 727.233
 726.176 725.127 724.095 723.094 722.124  721.18 720.251 719.335 718.437  717.57
 716.733  715.92 715.123 714.336 713.568 712.828 712.115 711.426 710.751 710.087
 709.446 708.845 708.285 707.759 707.254 706.764  706.29 705.838 705.408 704.996
 704.594 704.198 703.798 703.382 702.949 702.502 702.044  701.58 701.102 700.601
 700.076  699.61 699.185 698.711 698.201 697.663 697.105 696.532 695.705 694.953
 694.324 693.726 693.141 692.563 691.989 691.417 690.844 690.271 689.697 689.121
 688.544 687.966 687.385 686.797 686.202 685.601 684.996 684.388 683.779 683.169
 682.557 681.945 681.332 680.719 680.109 679.504 678.905 678.312 677.721 677.134
 676.552 675.982 675.425 674.879 674.339 673.804 673.277 672.766 672.269 671.786
 671.312 670.843 670.381 669.927 669.482 669.044 668.611 668.181 667.754 667.331
 666.911 666.493 666.078 665.663 665.252 664.845 664.443 664.045  663.65 663.258
 662.868 662.484 662.107 661.734 661.365 660.998 660.633 660.269 659.906 659.545
 659.185 658.825 658.467 658.113 657.765  657.42 657.079  656.74 656.406 656.085
 655.778 655.483 655.195 654.914 654.644 654.396 654.173 653.971 653.783 653.605
 653.441 653.301 653.187 653.095 653.018  652.95 652.891 652.843 652.806 652.779
 652.758 652.741 652.728 652.719 652.715 652.715 652.717 652.722 652.728 652.738
 652.752  652.77  652.79 652.811 652.836 652.869 652.909 652.956 653.008 653.063
 653.126 653.202 653.295 653.402 653.518  653.64 653.775 653.934  654.12 654.327
 654.551 654.784 655.031 655.301 655.596 655.912 656.241  656.58 656.935 657.317
 657.729 658.167 658.622 659.089  659.58 660.116 660.701 661.328 661.983 662.657
  663.36 664.114 664.923 665.777 666.663 667.568 668.497 669.465 670.473 671.513
 672.575 673.651 674.739 675.843 676.962 678.094 679.233 680.377 681.522 682.663
 683.798 684.929 686.057 687.183 688.299 689.395 690.471  691.53 692.577 693.616
 694.641  695.64 696.613 697.509  698.21 698.978 699.783 700.602 701.757 702.867
 703.757 704.594 705.411  706.21 706.993 707.765 708.529 709.289 710.042 710.787
 711.524 712.255 712.982 713.705  714.42 715.122  715.81 716.487 717.156 717.819
 718.469 719.095 719.696 720.277 720.846 721.405 721.945 722.453 722.928 723.378
  723.81 724.231 724.629 724.992 725.319 725.617 725.897 726.164 726.408 726.618
 726.792 726.939 727.069 727.186 727.284 727.354 727.396 727.416 727.422  727.42
 727.412   727.4 727.385 727.369 727.352 727.336 727.338 727.377 727.453 727.559
 727.686 727.826 727.987 728.181 728.407 728.658 728.926 729.204 729.487 729.773
 730.061  730.35 730.639 730.929 731.224 731.526 731.837 732.154 732.476 732.801
 733.126 733.452 733.777 734.102 734.426 734.748 735.053 735.325 735.562 735.772
 735.964 736.142 736.292 736.396
Stage Hydrograph TW Check=0
DSS Path=
Use DSS=False
Use Fixed Start Time=True
Fixed Start Date/Time=26JUN2013,04:00
Is Critical Boundary=False
Critical Boundary Flow=
Boundary Location=Mura            ,Mura            ,56.59807,        ,                ,                ,                ,                                
Friction Slope=0.0018,0
Met Point Raster Parameters=,,,,
Precipitation Mode=Disable
Wind Mode=No Wind Forces
Air Density Mode=
Met BC=Precipitation|Expanded View=0
Met BC=Precipitation|Point Interpolation=Nearest
Met BC=Precipitation|Gridded Source=DSS
Met BC=Evapotranspiration|Expanded View=0
Met BC=Evapotranspiration|Point Interpolation=Nearest
Met BC=Evapotranspiration|Gridded Source=DSS
Met BC=Wind Speed|Expanded View=0
Met BC=Wind Speed|Point Interpolation=Nearest
Met BC=Wind Speed|Gridded Source=DSS
Met BC=Wind Direction|Expanded View=0
Met BC=Wind Direction|Point Interpolation=Nearest
Met BC=Wind Direction|Gridded Source=DSS
Met BC=Wind Velocity X|Expanded View=0
Met BC=Wind Velocity X|Point Interpolation=Nearest
Met BC=Wind Velocity X|Gridded Source=DSS
Met BC=Wind Velocity Y|Expanded View=0
Met BC=Wind Velocity Y|Point Interpolation=Nearest
Met BC=Wind Velocity Y|Gridded Source=DSS
Met BC=Air Density|Mode=Constant
Met BC=Air Density|Expanded View=0
Met BC=Air Density|Constant Value=1.225
Met BC=Air Density|Constant Units=kg/m3
Met BC=Air Density|Point Interpolation=Nearest
Met BC=Air Density|Gridded Source=DSS
Met BC=Air Temperature|Expanded View=0
Met BC=Air Temperature|Point Interpolation=Nearest
Met BC=Air Temperature|Gridded Source=DSS
Met BC=Humidity|Expanded View=0
Met BC=Humidity|Point Interpolation=Nearest
Met BC=Humidity|Gridded Source=DSS
Met BC=Air Pressure|Expanded View=0
Met BC=Air Pressure|Point Interpolation=Nearest
Met BC=Air Pressure|Gridded Source=DSS
Non-Newtonian Method= 0 , 
Non-Newtonian Constant Vol Conc=0
Non-Newtonian Yield Method= 0 , 
Non-Newtonian Yield Coef=0, 0
User Yeild=   0
Non-Newtonian Sed Visc= 0 , 
Non-Newtonian Obrian B=0
User Viscosity=0
User Viscosity Ratio=0
Herschel-Bulkley Coef=0, 0
Clastic Method= 0 , 
Coulomb Phi=0
Voellmy X=0
Non-Newtonian Hindered FV= 0 
Non-Newtonian FV K=0
Non-Newtonian ds=0
Non-Newtonian Max Cv=0
Non-Newtonian Bulking Method= 0 , 
Non-Newtonian High C Transport= 0 , 
