Flow Title=q100
Program Version=6.10
Use Restart= 0 
Boundary Location=Mura            ,Mura            ,3266.039,        ,                ,                ,                ,                                
Interval=10MIN
Flow Hydrograph= 1994 
255.9269255.9812255.9774255.9646255.9676255.9985256.0392256.0475256.0135 255.957
255.8953255.8373255.7853255.7401255.7009 255.667255.6376255.6113255.5864255.5653
 255.548255.5344255.5254255.5186255.5134255.5111255.5126255.5179255.5254255.5359
255.5472255.5616255.5781255.5977255.6203255.6437255.6685255.6949255.7235255.7536
 255.786255.8192255.8531255.8885255.9254255.9638 256.003256.0429256.0844256.1258
256.1687256.2132256.2576256.3036256.3495 256.397256.4452256.4941256.5446256.5951
256.6478256.7006256.7541 256.809256.8648256.9213256.9793257.0373257.0968257.1586
257.2211257.2844257.3484257.4139 257.481257.5495257.6188257.6897257.7612257.8343
257.9081257.9842258.0618258.1394258.2185258.2983258.3789258.4618258.5446 258.629
258.7134258.7985258.8852258.9718259.0599259.1481259.2362259.3251259.4147259.5036
 259.594259.6837 259.774259.8637259.9541260.0437260.1342260.2238260.3134260.4031
260.4927260.5808260.6697260.7571 260.843260.9304261.0163261.1021 261.188261.2724
261.3568261.4411261.5233261.6053261.6867261.7673261.8472 261.927262.0054262.0822
 262.159262.2351262.3105262.3858262.4596262.5319262.6042262.6758262.7466262.8167
 262.886262.9545263.0223263.0894263.1557 263.222263.2867263.3515263.4148263.4781
263.5406263.6024263.6634263.7237263.7832263.8427263.9014263.9594264.0175264.0739
264.1297264.1854264.2412264.2954264.3497264.4031264.4559264.5086264.5606264.6125
 264.663264.7135 264.764 264.813264.8627264.9109264.9591265.0065 265.054265.1007
265.1474265.1934265.2386265.2838265.3282265.3727265.4171265.4608265.5045265.5467
265.5896 265.631265.6732265.7147265.7561265.7968265.8367265.8774265.9173265.9572
265.9964266.0356266.0747266.1132266.1516  266.19266.2277266.2661266.3037266.3407
266.3783 266.416266.4529266.4906266.5282266.5651266.6035266.6435266.6872266.7346
266.7851266.8371266.8913266.9508267.0171267.0902267.1693267.2522267.3395267.4367
 267.546267.6687267.8013267.9414268.0913268.2571268.4484268.6631268.8974 269.146
269.4096269.6996270.0273270.3912270.7844 271.198271.6349272.1118272.6428273.2274
273.8542 274.511275.2011275.9514276.7815277.6892 278.658279.6689280.7258281.8573
283.0852 284.405285.7949287.2344 288.732290.3283292.0488293.8861295.8109297.7996
299.8554302.0151304.2991306.6962309.1753311.7117314.3121317.0067319.8083322.7025
 325.663328.6627331.6782334.6921337.6963340.6885343.6716346.6411349.5692352.4258
355.2017357.9121360.5766363.2101365.8143368.3869370.9301373.4506375.9569378.4473
380.9084383.3228385.6904388.0219  390.33392.6186394.8785 397.103399.2944401.4609
403.6093 405.739407.8301409.8686411.8581413.8092415.7346417.6307419.4665421.2217
422.9023424.5265426.1152427.6655429.1511430.5537431.8818433.1556434.3941435.5903
436.7067437.7237 438.651439.5136440.3324441.0963441.7539442.2782442.6827442.9999
443.2613443.4556443.5302443.4579443.2552442.9577442.5999442.1863441.6936441.1083
440.4424439.7192438.9591438.1765437.3772436.5651435.7433434.9161434.0852433.2551
432.4355431.6294430.8377430.0558429.2806428.5168427.7785427.0727426.3977425.7453
 425.108424.4866423.8914423.3317422.8029422.2967421.8063421.3249420.8518420.3848
 419.923419.4643419.0085418.5527418.0963417.6367417.1742416.7101416.2446415.7783
415.3105414.8405414.3696413.8973413.4242412.9519412.4826 412.017411.5568411.0995
410.6438410.1918409.7451409.3059 408.875408.4486408.0268407.6094407.2034406.8132
406.4373406.0727405.7156405.3661405.0271404.7032404.3936404.0945403.8015403.5152
 403.235402.9638402.7001402.4425402.1886401.9362401.6862401.4361 401.186400.9366
400.6873400.4372400.1841399.9264 399.665399.3991399.1317 398.862398.5886398.3091
398.0251397.7366397.4458397.1527 396.856396.5554 396.251395.9437395.6341395.3245
395.0171394.7143 394.416394.1222393.8307393.5421393.2634 392.999392.7481392.5078
392.2743392.0468391.8284391.6205391.4231391.2347391.0509390.8709390.6939390.5183
390.3459390.1741390.0038389.8336389.6603389.4825 389.301389.1157388.9274388.7375
388.5417388.3375388.1259387.9081387.6867387.4607387.2271386.9823 386.727386.4626
386.1928385.9186385.6346385.3394385.0313384.7133384.3902 384.061383.7235383.3747
383.0146382.6455382.2711 381.893381.5088381.1193380.7238380.3246379.9216379.5185
379.1163378.7163  378.32377.9261377.5336377.1449376.7652376.3998376.0503375.7121
375.3821375.0612374.7569374.4789374.2273373.9975373.7821373.5772373.3881373.2179
 373.068372.9339372.8096 372.692372.5798372.4728372.3704372.2717372.1753372.0804
371.9915371.9086 371.834371.7655371.7014371.6404371.5892371.5508371.5267371.5139
371.5086371.5109371.5327371.5832371.6646  371.77 371.892372.0284372.1911372.3937
372.6356 372.909373.2043373.5207373.8868374.3267374.8427 375.419 376.036376.6944
377.4387 378.311379.3129380.4172381.5909382.8218384.1476385.6015387.1827388.8603
390.6035392.3873394.2043396.0514397.9241399.8142401.7148403.6093405.4625407.2478
408.9684410.6377412.2739413.8732415.4009416.8367418.1844 419.468420.7095421.9088
423.0387 424.082425.0455 425.951426.8181427.6512428.4316429.1488429.8094430.4286
431.0208431.5925432.1379432.6532433.1421433.6129434.0717434.5222434.9613435.3892
435.8073436.2186436.6254437.0284437.4254437.8164438.2013438.5825438.9606439.3365
439.7064440.0695440.4273440.7806441.1309441.4767441.8127442.1358 442.447442.7498
443.0473443.3389443.6183443.8835444.1366444.3799 444.618444.8485445.0677445.2719
 445.464445.6462445.8225445.9928 446.154446.3031446.4433446.5758446.7039446.8282
 446.948447.0625 447.174447.2817447.3879447.4934447.5996447.7058447.8135 447.922
448.0305448.1389448.2489448.3597448.4719448.5842448.6964448.8087448.9186449.0256
449.1295449.2313449.3322449.4301449.5228449.6071449.6848449.7578449.8279449.8927
449.9492449.9936 450.029450.0569450.0795450.0968450.1021 450.093450.0719450.0418
450.0056 449.962449.9047449.8324 449.745449.6478449.5439449.4316449.3058449.1635
 449.006 448.838448.6633 448.481448.2836448.0704447.8422447.6034447.3578447.1039
446.8372446.5547446.2587445.9514445.6387445.3178444.9856444.6391444.2798443.9106
443.5362443.1551442.7633442.3588441.9422441.5174441.0872440.6518440.2066439.7501
439.2838  438.81438.3316437.8495437.3599436.8627 436.358 435.848 435.335434.8182
434.2946433.7635433.2249432.6811432.1334431.5827431.0253430.4611429.8893 429.313
 428.733428.1507427.5646 426.974426.3804425.7838425.1849424.5852423.9818423.3754
 422.766422.1536421.5396420.9249 420.308419.6895419.0688418.4465417.8235417.1998
416.5783415.9591415.3429414.7282414.1143413.5011412.8879412.2724411.6562411.0392
410.4215409.8023409.1816408.5571407.9303407.3006  406.67406.0388405.4067404.7762
404.1457 403.516402.8862402.2579401.6357401.0202400.4123399.8104399.2123398.6187
398.0341397.4624396.9019396.3512395.8073395.2702394.7482394.2487393.7711393.3101
392.8604392.4242392.0182391.6573391.3402 391.057390.7963390.5598390.3707390.2502
390.1974390.1974390.2314390.3022390.4453390.6924391.0411 391.469391.9489392.4822
 393.118393.8969 394.816395.8427396.9411398.1027399.3697400.7762402.3152403.9536
405.6576 407.403409.1854411.0016412.8442414.7071416.5806418.4427420.2447421.9577
423.5841425.1472426.6666428.1371429.5141430.7714 431.921432.9914434.0099434.9681
435.8186436.5342437.1278437.6333438.0808438.4702 438.767438.9508439.0352439.0465
439.0119 438.935438.7957 438.584 438.309437.9874437.6363437.2612436.8559 436.416
435.9467435.4555434.9515 434.437433.9105433.3703432.8189432.2592431.6942431.1247
430.5477429.9624429.3687428.7706 428.168427.5616426.9469426.3216425.6873425.0463
424.4007423.7498423.0914422.4232421.7453421.0605420.3712419.6782418.9799418.2755
417.5659416.8518416.1346415.4137414.6837413.9417413.1877412.4246411.6555410.8818
410.0999409.3081408.5066407.6991406.8863406.0697405.2493404.4229403.5913402.7559
401.9182 401.079400.2383399.3954398.5509397.7049396.8582396.0107 395.164394.3188
393.4736392.6306391.7869390.9447390.1033389.2633388.4249387.5872386.7511385.9156
385.0817384.2523383.4267382.6041 381.783380.9641380.1476379.3362378.5287377.7234
376.9211376.1204375.3219374.5279373.7376372.9512372.1662371.3835370.6031 369.828
369.0566368.2882367.5229366.7597366.0012358.9261359.0082359.0067 359.021359.0828
359.1385359.0782358.8703358.5464358.1494 357.711357.2688356.8967356.6654356.5916
356.6466356.7912 357.033357.5189358.4041359.7148361.3713363.2651 365.388367.9876
371.3188 375.404380.0858385.1691390.6426396.8627404.1178412.3605421.3377430.7963
 440.871 452.127464.7893478.7753493.6742509.1103525.0751 540.176558.7827576.2504
592.9558611.0804630.2001649.0472 666.826682.4805697.1851706.1653715.3135728.1476
738.7527748.8124756.7734 763.056768.8309773.3431779.4872784.7664  790.05795.7067
799.5997803.3181806.1746808.7441811.4885814.2592816.4354818.0325819.6965821.6257
824.5682827.8729832.0259836.4418840.7967844.4623847.5727850.3788853.1231856.0791
860.7074865.2672 869.546873.9626878.1902881.6938886.0608890.5957894.6523898.0986
901.1616903.9187906.3994  908.59910.5516912.3219913.8172915.1302916.3611917.4963
918.5231919.4587920.3574921.3036922.4335   923.8925.2818926.6995927.9432929.2307
930.6243931.9079 933.471934.6364935.3536936.1355936.8956937.6278938.3299939.0184
939.6873940.3555 941.029941.6987942.3812943.0667943.7597944.4581945.1533945.8427
946.5221 947.188947.8336948.4536949.0321949.5677950.0544950.4868950.8679951.2017
951.4894951.7305951.9241 952.068952.1697952.2322952.2744 952.309952.3264952.3331
952.3384 952.352952.3866952.4446 952.535952.6699952.8582953.1105 953.436953.8397
954.3068954.8341955.4654956.2104957.0624958.0251959.0836960.2519961.5356962.9284
964.4313966.0381967.7375969.5364971.4484973.4604975.5772 977.807980.1498982.6018
985.1646 987.829990.5734993.4133996.3376999.33731002.3981005.5171008.6821012.065
1015.4761018.8651022.2831025.6691029.1171032.6731036.2631039.9191043.6561047.489
1051.4281055.4831059.6771064.0291068.4921073.0781078.1751083.4851089.096  1094.9
1100.8531107.0221113.4511120.1521127.1361134.3421141.7751149.4141157.2441165.272
1173.5051181.9941190.7471199.8531209.4121219.226 1229.241239.4331249.718 1260.02
1270.2281280.3611290.328 1300.141309.7471319.132 1328.231337.1791345.887 1354.26
1362.5151370.2771377.4031383.862 1389.67  1394.8 1399.281403.2181406.6931409.733
1412.4121414.8241416.9821418.9161420.6531422.2111423.6731425.0211426.3911427.661
1428.835 1429.911430.9081431.8421432.646 1433.291433.9031434.3571434.6691434.922
    14351434.9111434.8251434.5241434.143 1433.661433.005 1432.291431.423 1430.44
1429.2791428.0081426.5411425.0091423.317 1421.51 1419.581417.5321415.3331413.025
1410.6151408.1081405.4941402.7831399.9681397.0991394.1741391.1441388.0631384.912
1381.6541378.3071374.8771371.322 1367.591363.7171359.7321355.5941351.5571347.281
1342.8371338.2861333.6311328.911 1324.141319.3281314.4951309.6851304.7971299.976
1295.1491290.2521285.323  1280.41275.5031270.6411265.7781260.9281256.1161251.318
1246.5521241.817 1237.111232.4311227.7851223.1631218.5761214.0231209.5051205.025
1200.5831196.1771191.7961187.4631183.1591178.8971174.6681170.4771166.3231162.207
1158.1321154.093 1150.091146.1131142.159 1138.251134.3771130.5421126.7391122.982
1119.2311115.5261111.7511108.0011104.376 1100.841097.3681093.9271090.5111087.114
1083.7361080.382 1077.051073.7411070.4751067.1841063.9241060.6751057.4361054.212
1050.9861047.7731044.5711041.3761038.1951035.0221031.8561028.6991025.5511022.329
1019.1961016.0791013.1011010.0531006.9871003.9151000.852997.7976994.7603991.7342
988.7292985.7386982.7645979.8116976.8752973.9651971.0777968.2227965.4023   962.6
959.8369957.1159954.4243951.7508949.0924946.4528 943.832941.2391938.6786936.1581
933.6639931.2119928.7938926.4171924.0705 921.742919.4354917.1898915.0639912.8989
910.7377908.5034 906.324904.1349901.9661899.8072897.6753895.5638893.4688 891.404
889.3618887.3414885.3361883.3331881.3278879.3141877.3849875.5175873.5242 871.473
869.4142867.3682865.3139 863.234861.1331859.0192856.9047854.8015852.6953850.5686
848.4383846.3064844.1565841.9681839.7466837.5085835.2614833.0135830.7401828.4289
826.1674823.8608821.5384 819.234816.9161814.5567812.1476809.6903807.1848804.7012
802.2529799.7986  797.33794.8336 792.316789.7804787.2493784.7347782.2473779.7983
777.3839775.0148772.7081770.4324768.1755765.9916763.9456761.9712760.0005758.0314
756.0645754.0991752.1375750.1819748.2467746.3122744.3317742.3724740.4432738.5335
 736.648734.7949 732.965731.1842729.4275727.6844725.9525724.2319722.5144720.7961
 719.071717.3188715.5704713.8265712.0856710.3477708.6151706.8938705.1921703.5152
701.8609700.2278698.6066696.9976695.4043693.7975692.1674690.5259688.8837687.2475
685.6188683.9992682.3924680.7984679.2157677.6436676.0827674.5075672.9075671.3308
669.7783 668.228666.7138665.2524663.8354662.4516661.0881659.7449658.4402657.1867
655.9799654.8077653.6589652.5305651.4442 650.416649.4404648.5033647.5911646.6999
645.8456645.0403644.2765 643.548642.8422642.1461641.4418640.7164639.9706 639.209
638.4368637.6511636.8195635.9193634.9536633.9404632.8962631.8288  630.72629.5561
628.3425 627.092625.8182  624.53623.2328621.9273620.6166619.3021 617.986  616.67
615.3615614.0651612.7806 611.506610.2375608.9727607.7154606.4679605.2287603.9971
602.7692601.5443600.3254599.1149597.9126596.7163595.5231594.3351  593.16592.0059
590.8737589.7573588.6514587.5538586.4736585.4189584.3892583.3782582.3801 581.391
580.4147 579.458578.5209577.5974576.6829575.7751574.8771573.9928573.1212572.2601
571.4059570.5562569.7177568.8966568.0921567.3004566.5177565.7395564.9628564.1847
563.4042562.6216561.8374561.0524560.2607559.4592558.6464557.8253556.9981 556.168
 555.334554.4964553.6542552.8097551.9637551.1171550.2764549.4492548.6349547.8311
547.0349546.2446545.4672544.7131543.9824543.2713542.5715541.8815 541.205540.5519
539.9214539.3089538.7086538.1157537.5371536.9797536.4426535.9235 535.415534.9149
 534.432533.9792533.5574533.1612532.7808532.4116532.0546531.7141531.3901531.0798
530.7769530.4786530.1773 529.864529.5377 529.201 528.856528.5065528.1464 527.769
527.3735527.0225526.7023526.3452525.9611525.5558525.1354524.7038524.0807523.5143
523.0405  522.59522.1493521.7139521.2815520.8506520.4189519.9873519.5549 519.121
518.6863518.2509517.8132517.3703516.9221516.4694516.0136515.5556515.0968514.6373
514.1763513.7153513.2535512.7917512.3322511.8764511.4252510.9785510.5333510.0911
509.6526509.2233508.8037508.3924507.9856507.5826507.1856506.8006506.4262506.0624
505.7053 505.352 505.004 504.662504.3268503.9968503.6706503.3467503.0251502.7064
  502.39502.0751501.7625501.4499501.1403500.8337500.5308 500.231499.9335499.6382
499.3444499.0551498.7711498.4901498.2122497.9357497.6607497.3865497.1131496.8411
496.5699496.2987496.0291495.7624495.5002495.2404494.9835494.7281494.4765494.2347
494.0034493.7812493.5642493.3526493.1492492.9623492.7943492.6422492.5005492.3665
492.2429492.1375492.0516491.9823491.9243 491.873491.8286491.7924491.7646491.7442
491.7284491.7156491.7058 491.699 491.696 491.696491.6975491.7013491.7058491.7133
491.7239491.7375491.7525491.7683491.7872 491.812491.8422491.8776491.9167491.9582
492.0056492.0629492.1329492.2136492.3009492.3929492.4945492.6143492.7544492.9104
493.0791493.2546493.4407493.6441493.8663494.1044494.3522494.6076 494.875495.1628
495.4731495.8031496.1458496.4976496.8675497.2713497.7119498.1843498.6777499.1854
 499.715 500.283500.8924501.5357502.2032502.8849503.5847 504.314505.0733505.8567
506.6567507.4673508.2869509.1186509.9615510.8143511.6723512.5341513.3966514.2561
515.1111515.9631516.8129517.6611518.5018519.3274520.1379520.9357521.7244522.5071
523.2792524.0318524.7648525.4398525.9678526.5464527.1528527.7697528.6398 529.476
530.1464530.7769531.3924531.9943532.5841533.1657533.7412534.3137 534.881535.4422
535.9974 536.548537.0957537.6403 538.179538.7078539.2261 539.736  540.24540.7394
541.2291541.7007542.1534542.5911543.0197543.4408543.8476544.2303544.5881544.9271
545.2525545.5696545.8695546.1429546.3893546.6138546.8247547.0258547.2096547.3678
547.4989547.6096547.7076547.7957547.8695547.9222547.9539547.9689547.9734 547.972
547.9659547.9569547.9456547.9335547.9208547.9087547.9102547.9396547.9968548.0767
548.1724548.2778548.3991548.5452548.7155548.9045549.1064549.3159549.5291549.7445
549.9615550.1791550.3969550.6154550.8376551.0651551.2993551.5381551.7807552.0255
552.2703552.5159552.7607553.0056553.2496553.4922 553.722553.9269554.1054554.2636
554.4083554.5424554.6553554.7336
Stage Hydrograph TW Check=0
DSS Path=
Use DSS=False
Use Fixed Start Time=True
Fixed Start Date/Time=26JUN2013,04:00
Is Critical Boundary=False
Critical Boundary Flow=
Boundary Location=Mura            ,Mura            ,56.59807,        ,                ,                ,                ,                                
Friction Slope=0.0018,0
Boundary Location=                ,                ,        ,        ,                ,l-flow_area     ,                ,l_bound                         
Friction Slope=0.0012,0
Met Point Raster Parameters=,,,,
Precipitation Mode=Disable
Wind Mode=No Wind Forces
Air Density Mode=
Met BC=Precipitation|Expanded View=0
Met BC=Precipitation|Point Interpolation=Nearest
Met BC=Precipitation|Gridded Source=DSS
Met BC=Evapotranspiration|Expanded View=0
Met BC=Evapotranspiration|Point Interpolation=Nearest
Met BC=Evapotranspiration|Gridded Source=DSS
Met BC=Wind Speed|Expanded View=0
Met BC=Wind Speed|Point Interpolation=Nearest
Met BC=Wind Speed|Gridded Source=DSS
Met BC=Wind Direction|Expanded View=0
Met BC=Wind Direction|Point Interpolation=Nearest
Met BC=Wind Direction|Gridded Source=DSS
Met BC=Wind Velocity X|Expanded View=0
Met BC=Wind Velocity X|Point Interpolation=Nearest
Met BC=Wind Velocity X|Gridded Source=DSS
Met BC=Wind Velocity Y|Expanded View=0
Met BC=Wind Velocity Y|Point Interpolation=Nearest
Met BC=Wind Velocity Y|Gridded Source=DSS
Met BC=Air Density|Mode=Constant
Met BC=Air Density|Expanded View=0
Met BC=Air Density|Constant Value=1.225
Met BC=Air Density|Constant Units=kg/m3
Met BC=Air Density|Point Interpolation=Nearest
Met BC=Air Density|Gridded Source=DSS
Met BC=Air Temperature|Expanded View=0
Met BC=Air Temperature|Point Interpolation=Nearest
Met BC=Air Temperature|Gridded Source=DSS
Met BC=Humidity|Expanded View=0
Met BC=Humidity|Point Interpolation=Nearest
Met BC=Humidity|Gridded Source=DSS
Met BC=Air Pressure|Expanded View=0
Met BC=Air Pressure|Point Interpolation=Nearest
Met BC=Air Pressure|Gridded Source=DSS
Non-Newtonian Method= 0 ,    
Non-Newtonian Constant Vol Conc=0
Non-Newtonian Yield Method= 0 ,    
Non-Newtonian Yield Coef=0, 0
User Yeild=   0
Non-Newtonian Sed Visc= 0 ,    
Non-Newtonian Obrian B=0
User Viscosity=0
User Viscosity Ratio=0
Herschel-Bulkley Coef=0, 0
Clastic Method= 0 ,    
Coulomb Phi=0
Voellmy X=0
Non-Newtonian Hindered FV= 0 
Non-Newtonian FV K=0
Non-Newtonian ds=0
Non-Newtonian Max Cv=0
Non-Newtonian Bulking Method= 0 , 
Non-Newtonian High C Transport= 0 , 
