Flow Title=q500_OK
Program Version=6.10
Use Restart= 0 
Boundary Location=Mura            ,Mura            ,3266.039,        ,                ,                ,                ,                                
Interval=10MIN
Flow Hydrograph= 1994 
296.5899296.6527296.6483296.6335 296.637296.6728296.7199296.7296296.6902296.6248
296.5532 296.486296.4258296.3734 296.328296.2887296.2546296.2241296.1953296.1708
296.1508 296.135296.1245296.1167296.1106 296.108296.1097296.1158296.1245296.1368
296.1499296.1665296.1857296.2084296.2346296.2616296.2904 296.321296.3542296.3891
296.4266 296.465296.5043296.5453296.5881296.6326 296.678296.7243296.7723296.8203
296.8701296.9216296.9731297.0264297.0796297.1346297.1905297.2472297.3057297.3642
297.4253297.4864297.5484297.6122297.6768297.7422297.8094297.8766297.9456298.0172
298.0897 298.163298.2372298.3132298.3909298.4703298.5506298.6327298.7156298.8003
298.8858 298.974299.0639299.1539299.2455299.3381299.4315299.5275299.6235299.7213
299.8191299.9177300.0181300.1185300.2207300.3228 300.425 300.528300.6318300.7349
300.8396300.9435301.0483301.1522301.2569301.3608301.4655301.5695301.6733301.7772
301.8811301.9832302.0863302.1875 302.287302.3883302.4879302.5874302.6869302.7847
302.8824302.9802303.0754303.1705303.2648303.3582303.4507303.5433303.6341303.7231
303.8122303.9004303.9876 304.075304.1605304.2443304.3281 304.411304.4931304.5743
304.6546304.7341304.8126304.8903304.9672 305.044 305.119305.1941305.2675305.3408
305.4133305.4848305.5555305.6254305.6944305.7633305.8314305.8987305.9659306.0313
306.0959306.1606306.2252 306.288306.3509306.4128306.4739306.5351306.5953306.6555
 306.714306.7725 306.831306.8878306.9454307.0013307.0571307.1121307.1671307.2213
307.2754307.3286 307.381307.4334307.4849307.5364307.5879307.6385307.6892307.7381
307.7878307.8358307.8847307.9327307.9807308.0279308.0742308.1213308.1676308.2138
308.2592308.3046  308.35308.3946308.4391308.4836308.5273308.5718308.6154308.6582
308.7018308.7455308.7883308.8319308.8756308.9183308.9629309.0091309.0598309.1148
309.1732309.2335309.2964309.3653309.4421309.5268309.6185309.7145309.8158309.9284
 310.055310.1973 310.351310.5133 310.687310.8791311.1008311.3496311.6212311.9092
312.2148312.5509312.9306313.3523 313.808314.2873314.7936315.3462315.9617316.6391
317.3655318.1267318.9264319.7959 320.758321.8099322.9326324.1042 325.329326.6402
328.0632329.5927331.2034332.8717334.6072336.4571 338.451340.5803342.8108345.1155
347.4979350.0008352.6477355.4256358.2986 361.238364.2516367.3743 370.621373.9751
377.4059380.8822384.3768387.8697391.3512394.8188398.2758401.7172405.1106 408.421
 411.638 414.779417.8668420.9188423.9368426.9181429.8653432.7863435.6908438.5769
 441.429 444.227446.9708449.6728452.3476454.9998457.6188460.1967462.7363 465.247
467.7368470.2048472.6282474.9906477.2962479.5573481.7886 483.986486.1135488.1476
490.0952491.9774493.8185495.6152497.3367498.9622500.5013501.9776503.4128504.7991
506.0929507.2715508.3461509.3457510.2946511.1799 511.942512.5496513.0184513.3859
513.6888513.9141514.0005513.9167513.6819 513.337512.9224512.4431511.8721511.1938
510.4221 509.584508.7032507.7961506.8699505.9288504.9763504.0178503.0549502.0928
 501.143500.2089499.2914498.3852497.4869496.6017495.7461494.9281494.1459493.3899
492.6513491.9311491.2415490.5928489.9799489.3933 488.825488.2672487.7189487.1776
486.6425486.1108485.5827485.0545484.5255 483.993483.4569482.9192482.3796481.8393
481.2971480.7524480.2068479.6594479.1111478.5638478.0199477.4804 476.947476.4171
475.8889475.3651474.8474474.3384473.8391 473.345472.8561472.3725471.9019471.4497
471.0141470.5916470.1777469.7727469.3798469.0044468.6456 468.299467.9594467.6277
467.3029466.9887466.6831466.3846466.0904465.7979465.5081465.2182464.9284464.6394
464.3505464.0606463.7673463.4688463.1658462.8576462.5477462.2352461.9183461.5944
461.2653460.9309 460.594460.2544459.9104459.5621459.2094458.8532458.4944458.1356
457.7794457.4285457.0828456.7423456.4044456.0701455.7471455.4406455.1499454.8715
454.6008454.3372 454.084453.8431453.6143453.3961453.1831452.9744452.7693452.5659
 452.366452.1669451.9696451.7723451.5715451.3655451.1551450.9403450.7221450.5021
450.2751450.0385449.7932449.5409449.2843449.0224448.7517 448.468448.1721447.8657
447.5531447.2354446.9062 446.564446.2069445.8385 445.464445.0825444.6914444.2872
443.8699443.4422443.0083  442.57442.1248441.6735441.2151440.7524440.2854439.8184
439.3522438.8886438.4294437.9728 437.518437.0675436.6275436.2041435.7991435.4071
435.0247434.6528434.3001 433.978433.6864433.4201433.1705 432.933432.7139432.5166
432.3429432.1875432.0434431.9072431.7772431.6532431.5345431.4201431.3083431.1984
431.0953430.9993430.9129430.8334430.7592430.6885430.6292430.5847430.5567430.5419
430.5358430.5384430.5637430.6222430.7165430.8387430.9801431.1381431.3267431.5615
431.8418432.1587432.5009432.8675433.2918433.8016434.3997435.0675435.7825436.5455
 437.408438.4189  439.58440.8598  442.22443.6465445.1829446.8678448.7002450.6444
452.6645454.7318456.8375458.9781461.1483463.3387465.5413467.7368469.8844471.9534
473.9474475.8819477.7781479.6314481.4019483.0658484.6276486.1152487.5539488.9437
490.2532491.4623492.5789493.6282494.6331495.5986 496.503497.3341498.0997498.8173
499.5035500.1661500.7982501.3953501.9619502.5075503.0392503.5612504.0702 504.566
505.0505505.5272505.9986506.4657506.9258507.3788507.8249508.2667508.7049509.1405
509.5692  509.99510.4046510.8141  511.22511.6207512.0101512.3846512.7451513.0961
513.4409513.7787514.1027  514.41514.7033514.9852515.2611515.5283515.7823516.0189
516.2415516.4528 516.657516.8544517.0412517.2141517.3764  517.53517.6785517.8225
517.9613 518.094518.2232 518.348518.4711518.5934518.7164518.8395518.9644519.0901
519.2158519.3415 519.469519.5973519.7274519.8575519.9875520.1176520.2451 520.369
520.4895520.6074520.7244520.8378520.9452 521.043521.1329521.2176521.2988521.3738
521.4393521.4908521.5319521.5641521.5904521.6104521.6166521.6061521.5816521.5467
521.5048521.4542521.3878 521.304521.2028521.0901520.9697520.8396520.6938520.5288
520.3463520.1517519.9491519.7379519.5092519.2621518.9976518.7208518.4362 518.142
 517.833517.5056517.1625516.8063 516.444516.0721515.6871515.2856514.8691514.4414
514.0075513.5657513.1118 512.643512.1602511.6679511.1694510.6648510.1488509.6198
509.0794508.5303 507.976507.4172506.8498506.2736505.6887505.0977504.5032503.9043
503.2975502.6821502.0579501.4276500.7929500.1548499.5087498.8549498.1923497.5244
496.8522496.1774495.4982494.8138494.1258493.4344492.7404492.0455491.3462490.6434
489.9372489.2274 488.516487.8036487.0886486.3719485.6525484.9314484.2094483.4866
482.7664482.0488481.3347480.6223479.9108479.2002478.4896477.7763477.0622476.3472
475.6313474.9138474.1944473.4707472.7444472.0145471.2838470.5522469.8198469.0891
468.3584467.6286466.8988466.1707465.4496464.7363464.0318463.3343462.6411461.9532
461.2758460.6132459.9637459.3255458.6952458.0728457.4677456.8889456.3355455.8012
  455.28454.7746 454.304453.8858453.5183453.1901 452.888452.6139452.3948452.2551
 452.194 452.194452.2332452.3153452.4812452.7675453.1717453.6676454.2237454.8418
455.5786456.4813457.5463458.7362460.0091461.3552462.8236464.4535 466.237468.1358
470.1105472.1333474.1988476.3036478.4389480.5978 482.769484.9271487.0153489.0005
490.8853492.6967494.4576496.1617497.7575499.2145500.5467501.7873502.9676 504.078
505.0636 505.893506.5809507.1667507.6852508.1366508.4806508.6936508.7913508.8044
508.7643508.6752508.5137508.2684507.9498 507.577507.1702506.7354506.2657505.7559
 505.212504.6429504.0588503.4626502.8523502.2264501.5873500.9387 500.284 499.624
498.9553498.2769 497.589496.8958496.1974495.4947494.7823494.0577493.3227492.5797
491.8316491.0773490.3143  489.54488.7543487.9607487.1619486.3588485.5495484.7332
483.9109483.0833482.2522481.4167480.5708479.7109 478.837477.9527477.0613476.1648
475.2586474.3411473.4122472.4763471.5344 470.588469.6374468.6797467.7159466.7477
465.7769464.8044463.8302462.8533461.8747460.8943 459.913458.9309457.9496456.9702
455.9906455.0138 454.036  453.06452.0848451.1115450.1398 449.169   448.2447.2318
446.2654445.3043444.3475443.3941442.4426441.4936440.5473439.6071438.6712 437.738
436.8083435.8802434.9549434.0347 433.119432.2076431.2979430.3908429.4864428.5881
427.6942426.8037425.9167425.0324424.1533415.9541416.0492416.0475416.0641416.1357
416.2003416.1304415.8895415.5141 415.054414.5459414.0335413.6022413.3342413.2486
413.3124  413.48413.7602414.3233415.3491416.8681418.7878420.9825423.4427426.4554
430.3158  435.05440.4757446.3667452.7099459.9183468.3261477.8784 488.282499.2433
510.9188523.9632538.6374554.8455572.1116590.0002608.5017626.0018647.5649 667.808
687.1676708.1719730.3295752.1711772.7747790.9165807.9574818.3644828.9661843.8394
856.1295867.7875877.0133884.2941890.9866896.2158 903.336 909.454915.5771922.1325
926.6442930.9533934.2637937.2415940.4218943.6327946.1548948.0056 949.934952.1698
955.5797959.4095964.2224969.3399974.3867978.6347982.2393985.4913988.6716992.0972
997.46091002.7451007.7041012.8221017.7211021.7821026.8431032.0981036.7991040.793
1044.3431047.5381050.4131052.9511055.2251057.2761059.0091060.5311061.9571063.273
1064.4631065.5471066.5881067.6851068.9941070.5781072.2951073.938 1075.381076.871
1078.4871079.9741081.7861083.1361083.9671084.8731085.7541086.6031087.4161088.214
 1088.991089.7641090.544 1091.321092.1111092.9061093.7091094.5181095.3241096.123
 1096.911097.682 1098.431099.1491099.819 1100.441101.0041101.5051101.9471102.333
1102.6671102.9461103.1711103.3371103.4551103.5281103.5771103.6171103.6371103.645
1103.6511103.6661103.7071103.7741103.8791104.0351104.2531104.5461104.9231105.391
1105.9321106.5431107.2751108.1381109.1251110.2411111.4681112.8221114.3091115.923
1117.6651119.5271121.4971123.5811125.7971128.1291130.5821133.1661135.8811138.723
1141.693 1144.781147.9611151.2521154.6411158.1171161.6641165.2781168.9471172.866
 1176.821180.7481184.7091188.6331192.6281196.749 1200.911205.1461209.4771213.919
1218.4841223.1831228.0431233.0871238.2591243.5741249.4811255.6351262.1371268.863
1275.7611282.9111290.3611298.1281306.2211314.5721323.1861332.0381341.1121350.417
1359.9571369.7961379.9391390.4921401.5691412.9431424.5481436.361 1448.281460.218
1472.0481483.7921495.3421506.7131517.8461528.7221539.2661549.6371559.7291569.431
1578.9981587.9941596.2511603.7371610.4671616.4131621.6051626.1681630.1951633.718
1636.8231639.619 1642.121644.3611646.3741648.1791649.8741651.4351653.0231654.495
1655.8551657.1011658.258 1659.341660.2721661.0181661.7291662.2551662.6161662.909
    16631662.8971662.7971662.4481662.0061661.4471660.688 1659.861658.8551657.716
 1656.371654.8971653.1971651.4211649.4611647.366 1645.131642.7571640.2091637.534
1634.7411631.8361628.8061625.6641622.4021619.0771615.6881612.1761608.6051604.954
1601.178  1597.31593.3241589.205 1584.881580.3911575.7731570.9771566.2991561.344
1556.194 1550.921545.5251540.0551534.5261528.9491523.3491517.774 1512.111506.523
1500.9291495.2531489.5411483.8361478.1611472.5271466.891 1461.271455.6941450.133
1444.6111439.1231433.6691428.2451422.8621417.5061412.1891406.9131401.6771396.486
1391.3381386.2321381.1541376.1331371.1451366.2061361.3051356.4481351.6351346.865
1342.1421337.4621332.8221328.2131323.6311319.1011314.6131310.1681305.7611301.407
 1297.061292.7661288.3911284.0461279.8451275.7481271.7231267.7361263.7771259.841
1255.9251252.0391248.1771244.3421240.5571236.7441232.965  1229.21225.4471221.711
1217.9721214.2481210.5371206.8351203.1481199.4721195.8031192.1441188.4961184.762
1181.1311177.5191174.0681170.5361166.9821163.4221159.8721156.3331152.8131149.306
1145.8231142.3581138.9111135.4891132.0861128.7141125.3671122.059 1118.791115.543
1112.3411109.1871106.068 1102.971099.889 1096.831093.7931090.7881087.821  1084.9
1082.0091079.1671076.3651073.6111070.8911068.193 1065.521062.9171060.4541057.945
 1055.441052.8511050.3251047.7881045.2751042.7731040.3021037.8551035.4281033.035
1030.6681028.3271026.0031023.6811021.3571019.0241016.7881014.6241012.3141009.937
1007.551 1005.181002.7991000.389997.9542995.5045 993.054990.6166988.1757985.7112
983.2424980.7718978.2803975.7442973.1697 970.576967.9719965.3669962.7322960.0538
957.4331954.7599952.0685 949.398946.7118943.9775941.1857 938.338935.4344932.5561
929.7189926.8746924.0139921.1207918.2031915.2646912.3314909.4173906.5347903.6965
900.8986 898.153895.4799892.8425890.2271887.6962885.3251 883.037880.7532878.4713
876.1918873.9142871.6409869.3746867.1319  864.89862.5949860.3242858.0885855.8754
853.6903851.5427849.4222847.3585845.3226843.3025841.2955839.3016837.3111835.3198
833.3206  831.29829.2638827.2428825.2253823.2113821.2034819.2086817.2365815.2932
813.3761811.4835809.6047807.7401805.8937804.0316802.1424800.2401 798.337796.4408
794.5534792.6765790.8143788.9671787.1329 785.311783.5021781.6767779.8224777.9952
 776.196774.3994772.6447 770.951769.3089767.7052766.1251764.5685763.0565761.6038
760.2053758.8469757.5156756.2078 754.949753.7573752.6268751.5408750.4836749.4508
748.4608747.5276746.6424745.7982744.9802744.1735743.3573742.5166741.6523740.7697
739.8749738.9644738.0005736.9573735.8381734.6639 733.454732.2169730.9319729.5831
728.1767726.7275725.2513723.7585722.2552720.7422719.2233717.6998716.1747714.6496
713.1332711.6308710.1423708.6652707.1951705.7293704.2723702.8266701.3905699.9631
698.5402697.1207695.7081694.3052692.9119691.5256690.1428688.7661687.4042686.0668
684.7546683.4609682.1793680.9073679.6555678.4333677.2399676.0683674.9116673.7653
672.6339671.5252670.4392669.3689668.3091667.2571666.2165665.1916664.1816663.1837
662.1937 661.209660.2374659.2858658.3534657.4359656.5289655.6271 654.727653.8252
652.9208652.0137651.1049650.1953649.2777648.3489647.4069646.4553645.4968644.5347
643.5683642.5975641.6215640.6429639.6625638.6813 637.707636.7485635.8047634.8732
633.9505633.0347632.1338631.2599630.4131 629.589 628.778627.9783627.1943626.4375
625.7068 624.997624.3013623.6142622.9437622.2977621.6753621.0738620.4845619.9048
619.3452618.8206618.3317617.8725617.4316617.0038  616.59616.1954615.8201615.4604
615.1094614.7637614.4146614.0514613.6733613.2831612.8833612.4782612.0609611.6235
611.1652610.7584610.3874609.9736609.5284609.0587608.5715608.0714607.3494606.6929
606.1437605.6217 605.111604.6064604.1053 603.606603.1057602.6055602.1044601.6016
601.0978600.5932 600.086599.5727599.0533598.5286598.0004597.4697 596.938596.4055
595.8712595.3369594.8018594.2666593.7341593.2059 592.683592.1653591.6494591.1369
590.6288590.1312 589.645589.1683588.6969588.2298587.7698587.3237586.8898586.4681
586.0543585.6449585.2416584.8452584.4567584.0743583.6964 583.321582.9482582.5789
582.2122581.8474 581.485581.1227580.7639580.4086580.0577579.7102579.3654579.0232
578.6827578.3475578.0184577.6927577.3706577.0502576.7316576.4138576.0969575.7817
575.4675575.1532574.8406574.5316574.2278573.9266573.6289 573.333573.0414572.7612
572.4932572.2356571.9842571.7389571.5032571.2867 571.092570.9156570.7515570.5961
570.4529570.3307570.2312570.1509570.0837570.0243569.9728569.9309569.8986569.8751
569.8567569.8419569.8305569.8226569.8192569.8192569.8209569.8253569.8305569.8392
569.8514569.8672569.8846 569.903569.9248569.9536569.9885570.0295 570.075 570.123
 570.178570.2443570.3255570.4189570.5202570.6267570.7446570.8834571.0457571.2264
 571.422571.6254 571.841572.0767572.3343572.6101572.8973573.1933573.5032573.8367
574.1964574.5787 574.976575.3837575.8123576.2802 576.791577.3383577.9101578.4985
579.1122579.7704580.4767581.2223581.9957582.7858583.5968584.4419585.3218586.2298
587.1569588.0963589.0461590.0099590.9868 591.975592.9694 593.968594.9677595.9637
596.9546 597.942598.9267599.9097600.8839601.8408602.7801603.7046604.6187605.5257
606.4205607.2926 608.142608.9243609.5362610.2067610.9094611.6245612.6328613.6018
614.3787615.1094615.8227616.5202617.2038617.8777618.5447619.2082619.8655620.5159
621.1593621.7975622.4321623.0634623.6875624.3004 624.901 625.492 626.076626.6548
627.2223627.7688628.2935628.8007629.2974629.7854630.2568630.7003 631.115631.5079
 631.885632.2525   632.6632.9169633.2023633.4625633.7069  633.94 634.153634.3364
634.4883634.6166634.7301634.8322634.9178634.9789635.0156 635.033635.0383635.0365
635.0295 635.019 635.006 634.992634.9772634.9632634.9649 634.999635.0653635.1578
635.2687635.3909635.5315635.7009635.8981636.1173636.3513636.5939 636.841637.0907
637.3421637.5944637.8467638.0999638.3574 638.621638.8925639.1693639.4504639.7341
640.0178640.3024640.5862640.8699641.1527641.4338641.7001641.9376642.1445642.3278
642.4954642.6508642.7817642.8726
Stage Hydrograph TW Check=0
DSS Path=
Use DSS=False
Use Fixed Start Time=True
Fixed Start Date/Time=26JUN2013,04:00
Is Critical Boundary=False
Critical Boundary Flow=
Boundary Location=Mura            ,Mura            ,56.59807,        ,                ,                ,                ,                                
Friction Slope=0.0018,0
Boundary Location=                ,                ,        ,        ,                ,l-flow_area     ,                ,l_bound                         
Friction Slope=0.0012,0
Met Point Raster Parameters=,,,,
Precipitation Mode=Disable
Wind Mode=No Wind Forces
Air Density Mode=
Met BC=Precipitation|Expanded View=0
Met BC=Precipitation|Point Interpolation=Nearest
Met BC=Precipitation|Gridded Source=DSS
Met BC=Evapotranspiration|Expanded View=0
Met BC=Evapotranspiration|Point Interpolation=Nearest
Met BC=Evapotranspiration|Gridded Source=DSS
Met BC=Wind Speed|Expanded View=0
Met BC=Wind Speed|Point Interpolation=Nearest
Met BC=Wind Speed|Gridded Source=DSS
Met BC=Wind Direction|Expanded View=0
Met BC=Wind Direction|Point Interpolation=Nearest
Met BC=Wind Direction|Gridded Source=DSS
Met BC=Wind Velocity X|Expanded View=0
Met BC=Wind Velocity X|Point Interpolation=Nearest
Met BC=Wind Velocity X|Gridded Source=DSS
Met BC=Wind Velocity Y|Expanded View=0
Met BC=Wind Velocity Y|Point Interpolation=Nearest
Met BC=Wind Velocity Y|Gridded Source=DSS
Met BC=Air Density|Mode=Constant
Met BC=Air Density|Expanded View=0
Met BC=Air Density|Constant Value=1.225
Met BC=Air Density|Constant Units=kg/m3
Met BC=Air Density|Point Interpolation=Nearest
Met BC=Air Density|Gridded Source=DSS
Met BC=Air Temperature|Expanded View=0
Met BC=Air Temperature|Point Interpolation=Nearest
Met BC=Air Temperature|Gridded Source=DSS
Met BC=Humidity|Expanded View=0
Met BC=Humidity|Point Interpolation=Nearest
Met BC=Humidity|Gridded Source=DSS
Met BC=Air Pressure|Expanded View=0
Met BC=Air Pressure|Point Interpolation=Nearest
Met BC=Air Pressure|Gridded Source=DSS
Non-Newtonian Method= 0 ,     
Non-Newtonian Constant Vol Conc=0
Non-Newtonian Yield Method= 0 ,     
Non-Newtonian Yield Coef=0, 0
User Yeild=   0
Non-Newtonian Sed Visc= 0 ,     
Non-Newtonian Obrian B=0
User Viscosity=0
User Viscosity Ratio=0
Herschel-Bulkley Coef=0, 0
Clastic Method= 0 ,     
Coulomb Phi=0
Voellmy X=0
Non-Newtonian Hindered FV= 0 
Non-Newtonian FV K=0
Non-Newtonian ds=0
Non-Newtonian Max Cv=0
Non-Newtonian Bulking Method= 0 , 
Non-Newtonian High C Transport= 0 , 
