Flow Title=q10
Program Version=6.10
Use Restart= 0 
Boundary Location=Mura            ,Mura            ,3266.039,        ,                ,                ,                ,                                
Interval=10MIN
Flow Hydrograph= 1994 
 187.977188.0168188.0141188.0046188.0069188.0295188.0594188.0655188.0406187.9991
187.9537187.9111 187.873187.8398 187.811187.7861187.7645187.7451187.7269187.7114
187.6987187.6887187.6821187.6771187.6732187.6716187.6727187.6765187.6821187.6898
187.6981187.7086187.7208187.7352187.7518187.7689187.7872187.8066187.8276187.8497
187.8735187.8979187.9228187.9488187.9759188.0041188.0329188.0622188.0926 188.123
188.1546188.1872188.2199188.2536188.2874188.3222188.3577188.3936188.4307188.4678
188.5065188.5452188.5845188.6249188.6658188.7073188.7499188.7925188.8363188.8816
188.9276 188.974189.0211189.0692189.1184189.1688189.2197189.2717189.3243189.3779
189.4322189.4881 189.545 189.602189.6601189.7188 189.778189.8388189.8997189.9617
190.0236190.0862190.1498190.2134190.2782190.3429190.4076190.4729190.5388 190.604
190.6705190.7363190.8027190.8685190.9349191.0008191.0672 191.133191.1989191.2647
191.3305191.3953191.4606191.5247191.5878 191.652191.7151191.7782191.8412191.9032
191.9652192.0271192.0874192.1478192.2075192.2667192.3254 192.384192.4416 192.498
192.5544192.6103192.6656 192.721192.7752192.8283192.8814 192.934 192.986193.0375
193.0884193.1387193.1885193.2378193.2865193.3351193.3827193.4303193.4768193.5233
193.5692193.6146193.6594193.7036193.7474193.7911193.8342193.8768193.9194193.9609
194.0019194.0428194.0838194.1236194.1634194.2027194.2415194.2802194.3184194.3566
194.3936194.4307194.4678194.5037194.5402194.5757194.6111194.6459194.6808194.7151
194.7494194.7831194.8163194.8495194.8822194.9148194.9475194.9796195.0117195.0426
195.0742195.1046195.1356 195.166195.1965195.2263195.2557195.2855195.3149195.3442
 195.373195.4017195.4305195.4587195.4869195.5152195.5428 195.571195.5987195.6258
195.6535195.6812195.7083195.7359195.7636195.7907195.8189195.8483195.8803195.9152
195.9523195.9904196.0303 196.074196.1227196.1763196.2345196.2953196.3595196.4309
196.5111196.6013196.6987196.8016196.9117197.0334 197.174197.3316197.5037197.6863
  197.88 198.093198.3337198.6009198.8897199.1935199.5144199.8647200.2547200.6841
201.1444201.6269202.1337202.6848203.2946203.9613204.6729205.4154206.1917207.0227
207.9246 208.894209.9148210.9722212.0721213.2446214.5083215.8578217.2715218.7322
220.2422221.8285223.5061225.2667227.0876228.9506230.8606232.8398234.8975237.0233
239.1978 241.401243.6159245.8296248.0362250.2339 252.425254.6061256.7568258.8549
260.8938262.8846264.8416 266.776268.6887270.5782272.4462274.2975276.1384277.9676
279.7752281.5486283.2876285.0001286.6954288.3763290.0362291.6701293.2797294.8709
 296.449298.0132299.5491301.0464302.5076303.9407305.3549306.7476308.0959309.3852
310.6196311.8125312.9794314.1181315.2092316.2394317.2149318.1505319.0602319.9388
320.7588321.5058322.1869322.8204323.4218323.9829324.4659 324.851325.1482325.3811
325.5731325.7159325.7706325.7175325.5687325.3501325.0873324.7835324.4217323.9918
323.5026322.9715322.4132321.8383321.2513320.6548320.0511319.4436318.8333318.2236
317.6216317.0296316.4481315.8737315.3044314.7433314.2011313.6826313.1869312.7077
312.2396311.7832 311.346310.9349310.5465310.1747309.8145 309.461309.1135308.7704
308.4313308.0943307.7596307.4248307.0895 306.752306.4123306.0714305.7295 305.387
305.0434304.6981304.3523304.0054303.6579 303.311302.9663302.6244302.2863301.9504
301.6157301.2837300.9556 300.633300.3165300.0034299.6935 299.387299.0888298.8022
298.5261298.2583 297.996297.7393297.4903297.2523 297.025296.8053296.5901296.3798
 296.174295.9748295.7811295.5919295.4054295.2201295.0364294.8527 294.669294.4858
294.3027 294.119293.9331293.7439293.5519293.3566293.1601292.9621292.7612292.5559
292.3474292.1354291.9218291.7066291.4886291.2679291.0443290.8186290.5912290.3637
 290.138289.9156289.6965289.4807289.2666289.0547288.8499288.6557288.4715 288.295
288.1234287.9563287.7959287.6432287.4982287.3599287.2249287.0926286.9626286.8337
 286.707286.5808286.4558286.3307286.2035286.0729285.9395285.8034285.6651285.5257
285.3818285.2319285.0764284.9165284.7538284.5878284.4163284.2365284.0489283.8547
283.6566283.4552283.2466283.0298282.8034282.5699282.3326282.0908281.8429281.5867
281.3223281.0511280.7762280.4984280.2162279.9301279.6397279.3464279.0504278.7544
278.4589278.1651277.8741277.5847277.2964277.0109276.7321276.4637 276.207275.9586
275.7162275.4805 275.257275.0528 274.868274.6992 274.541274.3905274.2516274.1266
274.0164 273.918273.8267273.7404273.6579273.5793273.5041273.4316273.3608273.2911
273.2258273.1649273.1102273.0598273.0128 272.968272.9303272.9021272.8844 272.875
272.8711272.8728272.8888272.9259272.9857273.0631273.1528273.2529273.3724273.5213
273.6989273.8997274.1166 274.349274.6179 274.941  275.32275.7433276.1965276.6801
277.2267277.8674278.6033279.4145280.2765281.1806282.1544283.2223284.3837285.6159
286.8962288.2064 289.541290.8977292.2732293.6614295.0574 296.449297.8101299.1214
300.3852301.6113 302.813303.9877305.1098306.1644307.1542308.0971309.0089309.8898
310.7197 311.486312.1937312.8588313.4956314.1076314.6808315.2076315.6928316.1476
316.5825317.0024 317.403317.7815318.1406318.4864318.8234319.1542319.4768319.7911
320.0982320.4003320.6991320.9951321.2867321.5738321.8566322.1365322.4143322.6904
322.9621323.2288323.4916323.7511324.0084324.2623324.5091324.7465 324.975325.1974
 325.416325.6301325.8354326.0301 326.216326.3947326.5696326.7389326.8999327.0499
327.1909327.3249327.4543327.5794327.6978327.8073327.9102328.0076328.1017 328.193
328.2809328.3651328.4469328.5261328.6041328.6815328.7596328.8376328.9167328.9964
 329.076329.1557329.2365329.3178329.4003329.4827329.5652329.6476329.7284329.8069
329.8833 329.958330.0321330.1041330.1721330.2341330.2911330.3448330.3962330.4438
330.4853330.5179330.5439330.5644 330.581330.5938330.5976 330.591330.5755330.5533
330.5268330.4947330.4527330.3995330.3354 330.264330.1876330.1052330.0128329.9082
329.7926329.6692329.5408329.4069 329.262329.1054328.9377328.7623328.5819328.3955
328.1996327.9921327.7747327.5489327.3193327.0836326.8396326.5851326.3212  326.05
325.7751325.4951325.2074324.9102324.6042324.2922323.9763323.6565323.3295322.9941
322.6517322.3036321.9523321.5982321.2385320.8734320.5026320.1281319.7513319.3717
318.9872318.5971318.2014 317.802317.3997316.9953316.5858316.1714315.7514315.3282
314.9021314.4744314.0439313.6102313.1742312.7359312.2961311.8557311.4124 310.967
310.5194310.0696309.6187309.1671 308.714308.2597307.8038307.3468306.8892306.4311
305.9746305.5198305.0672304.6157304.1648303.7144 303.264302.8119302.3593301.9062
301.4525300.9977300.5417 300.083299.6227299.1601 298.697298.2334297.7691 297.306
296.8429296.3803295.9178295.4563294.9993294.5473294.1007293.6587293.2193292.7834
 292.354 291.934291.5224291.1179290.7184290.3239289.9405289.5736289.2228288.8842
288.5539288.2336287.9353287.6703287.4373287.2293287.0379286.8641286.7253286.6367
 286.598 286.598286.6229286.6749  286.78286.9615287.2177 287.532287.8844288.2762
288.7431289.3152289.9903290.7444291.5511292.4043 293.335 294.368295.4984296.7018
297.9534299.2354300.5445301.8785303.2319304.6002305.9763 307.344308.6675309.9257
311.1203312.2684313.3844314.4644315.4759316.3994317.2437318.0299 318.778319.4818
320.1065320.6321321.0681321.4394 321.768322.0541322.2721322.4071322.4691322.4774
322.4519322.3955322.2931322.1376321.9357321.6994321.4416 321.166320.8684320.5453
320.2005319.8398319.4696319.0917 318.705318.3083317.9032317.4921317.0771316.6588
 316.235315.8051315.3691314.9298314.4872314.0417313.5902 313.131312.6651312.1943
311.7201 311.242310.7585310.2677309.7697309.2668308.7605308.2514307.7385307.2212
   306.7306.1754305.6487305.1192 304.583304.0381303.4842302.9237302.3588301.7905
301.2162300.6347 300.046299.4529298.8558 298.256297.6535297.0465296.4357295.8221
295.2068294.5904293.9729293.3538292.7336292.1122291.4903290.8678290.2459289.6251
289.0043288.3852287.7654287.1469286.5288285.9119285.2961284.6808284.0666 283.453
282.8405282.2313281.6249281.0207280.4176279.8162279.2164278.6205278.0273277.4359
276.8466276.2585275.6719275.0888274.5084273.9307273.3542272.7793272.2061271.6367
271.0701270.5058269.9436269.3831268.8259263.6293263.6896263.6885 263.699263.7444
263.7854263.7411263.5884263.3505263.0589262.7368262.4121262.1387261.9689261.9146
 261.955262.0613262.2389262.5958263.2459264.2086265.4254266.8163268.3755 270.285
272.7317275.7322 279.171282.9047 286.925291.4936296.8224302.8767309.4704316.4176
323.8175332.0849341.3853351.6579362.6011373.9388385.6649396.7564 410.423423.2529
435.5229448.8354462.8787476.7218489.7802501.2784512.0789518.6747 525.394534.8206
  542.61549.9988555.8461560.4606564.7022568.0165572.5292576.4068580.2877584.4424
587.3018 590.033 592.131594.0184596.0341598.0691599.6675600.8406602.0628603.4798
 605.641608.0684611.1187614.3621617.5608620.2532622.5377624.5988626.6144628.7856
632.1851635.5342 638.677 641.921645.0261647.5995 650.807654.1379657.1174659.6487
661.8985663.9236665.7456667.3546668.7954670.0956 671.194672.1584673.0624673.8963
674.6505675.3376675.9977676.6927677.5226678.5263679.6146680.6559681.5695682.5151
683.5387684.4815685.6296686.4855687.0123687.5866688.1449688.6827689.1984689.7041
690.1954690.6862691.1808691.6727692.1741692.6776693.1866693.6995694.2102694.7165
695.2155695.7047696.1788696.6342697.0591697.4525  697.81698.1276698.4075698.6526
 698.864699.0411699.1833699.2889699.3636699.4095699.4406 699.466699.4787699.4837
699.4876699.4976 699.523699.5656 699.632 699.731699.8694700.0547700.2938700.5903
700.9333701.3207701.7844702.3315702.9573703.6644704.4418   705.3706.2429707.2659
708.3698709.5499710.7982712.1194713.5237715.0016716.5564718.1942719.9149721.7159
723.5983725.5553727.5709729.6569731.8048734.0081736.2561738.5468740.8718743.3561
 745.862748.3513750.8616753.3487755.8812758.4927761.1298763.8149766.5599769.3751
772.2683775.2467 778.327781.5234784.8017788.1702791.9138 795.814799.9351804.1982
808.5704813.1019817.8239 822.746827.8757 833.168838.6279844.2385849.9894855.8865
 861.933868.1687874.5975881.2858888.3067895.5151902.8707910.3574917.9116 925.478
932.9758940.4188947.7396954.9463 962.002968.8956975.5784982.1511988.5472994.6966
 1000.761006.4611011.695 1016.441020.7051024.4741027.7641030.6561033.2091035.441
1037.4091039.1811040.7661042.1861043.4621044.6071045.681 1046.671047.677 1048.61
1049.4721050.2611050.9951051.6811052.2711052.7441053.1941053.5281053.7571053.943
    10541053.9351053.872 1053.65 1053.371053.0161052.535 1052.011051.3731050.651
1049.7981048.8641047.7871046.6621045.4191044.0911042.674 1041.171039.555 1037.86
 1036.091034.2481032.3281030.3371028.2691026.1621024.0141021.7881019.5251017.211
1014.817 1012.36 1009.841007.2291004.4881001.643998.7158995.6765992.7114989.5708
986.3069982.9644 979.545 976.078972.5739969.0394965.4901961.9567958.3668954.8257
951.2802947.6831944.0629 940.447  936.85933.2791929.7075926.1448922.6108919.0863
915.5861 912.108 908.651905.2139901.8017898.4072895.0376891.6934888.3753885.0848
 881.822878.5858875.3677872.1851869.0241865.8936862.7873859.7093856.6584853.6351
850.6418847.6755844.7353841.8138838.9096836.0391 833.194830.3771 827.584824.8242
822.0693819.3476 816.575813.8212811.1588808.5616806.0109803.4839800.9747798.4799
795.9983 793.535791.0878788.6571 786.258783.8411781.4465779.0601776.6815774.3133
771.9435769.5837767.2316764.8851762.5485760.2185 757.893755.5741753.2618750.8954
748.5942746.3046744.1174741.8788739.6268737.3705735.1202732.8771730.6462728.4236
726.2165724.0198721.8354719.6665717.5097715.3723713.2515711.1545709.0829707.0247
704.9951702.9966701.0197 699.056697.1034695.1646693.2397691.3353689.4546687.6032
685.7712683.9702682.1942680.4485678.7249677.0147675.3205673.6711672.1097670.5195
668.9321 667.291665.6902664.0824662.4894660.9037659.3378657.7869656.2482654.7316
653.2316651.7476650.2747648.8035647.3306645.8516644.4346 643.063 641.599640.0923
638.5801637.0774635.5685634.0409632.4977630.9451 629.392627.8472626.3002624.7382
623.1735621.6076620.0285618.4211616.7895615.1456613.4951611.8441610.1742608.4767
606.8157605.1215603.4156601.7231600.0206598.2877596.5182594.7133 592.873591.0488
589.2505587.4479585.6348583.8011 581.952580.0895578.2305576.3835574.5565572.7578
570.9844569.2443567.5501565.8785564.2209562.6168561.1141559.6639558.2164556.7701
555.3254553.8819552.4411551.0047549.5833548.1624546.7078545.2686543.8516 542.449
541.0641539.7029 538.359 537.051535.7607534.4803533.2083531.9446 530.683 529.421
528.1539526.8669525.5827524.3018523.0231521.7467520.4741519.2098517.9599516.7282
515.5132514.3136513.1229511.9411510.7708509.5906508.3933507.1877505.9815504.7797
503.5835502.3939501.2137500.0429498.8804497.7256496.5792495.4222 494.247 493.089
491.9486490.8099489.6978488.6244487.5836486.5672485.5657484.5792483.6209482.7002
481.8138480.9529480.1091479.2802478.4824477.7271477.0106476.3223475.6523474.9977
474.3702473.7787473.2177472.6827472.1642 471.653471.1357470.6028470.0551469.4957
468.9285468.3514467.7406467.0794466.3701465.6259 464.859 464.075463.2605462.4056
461.5143460.5958459.6602 458.714457.7612456.8024455.8396454.8741453.9075452.9409
451.9798451.0276450.0842 449.148448.2162447.2872446.3638445.4475444.5373443.6327
442.7308441.8311440.9359440.0468439.1637 438.285437.4086 436.536435.6729434.8252
433.9936433.1736432.3614431.5552430.7618429.9872429.2308428.4883427.7552427.0287
426.3116425.6089424.9206424.2422423.5705422.9038422.2443421.5947420.9545420.3221
419.6946419.0705418.4547417.8516417.2607416.6792416.1043415.5327414.9622414.3907
413.8175413.2426412.6666412.0901411.5085410.9198410.3228409.7197409.1122408.5025
  407.89407.2747406.6561406.0359405.4145404.7926404.1751403.5676402.9695402.3791
401.7943401.2138400.6428 400.089399.5523399.0299398.5159398.0091397.5122397.0325
396.5694396.1196395.6786395.2432394.8182394.4088394.0143393.6331393.2596392.8922
392.5375 392.205391.8951391.6041391.3247391.0536390.7913390.5412390.3033390.0753
389.8529389.6338389.4125389.1823388.9427388.6954 388.442388.1852387.9208387.6436
387.3531387.0952386.8601386.5978386.3156386.0179385.7092385.3922384.9346384.5185
384.1705383.8396383.5159383.1961382.8785 382.562 382.245381.9279381.6104381.2917
380.9724380.6526380.3311380.0058379.6766 379.344379.0093378.6729378.3359377.9984
377.6598377.3212 376.982376.6428376.3053375.9706375.6391 375.311 374.984374.6592
374.3372374.0218373.7137373.4115373.1128372.8167372.5251372.2424371.9674371.7002
371.4379371.1784370.9228370.6716370.4254 370.183369.9435369.7055369.4693369.2352
369.0028368.7715368.5419368.3123368.0849367.8597367.6373367.4171367.1985366.9816
366.7658366.5534366.3448366.1384365.9342365.7312365.5292365.3278 365.127364.9272
 364.728364.5288364.3307364.1349363.9423363.7514363.5628363.3752363.1904363.0128
362.8429362.6797362.5204362.3649362.2155362.0783361.9549361.8431361.7391361.6406
361.5499361.4724361.4093361.3584361.3158361.2782361.2455 361.219361.1985361.1836
 361.172361.1625361.1554361.1504361.1482361.1482361.1493 361.152361.1554361.1609
361.1686361.1786361.1897361.2013361.2151361.2334361.2555361.2815361.3103361.3407
361.3756361.4176361.4691361.5283361.5925  361.66361.7346361.8226361.9255362.0401
 362.164362.2929362.4296 362.579362.7422362.9171363.0991363.2867363.4831363.6945
363.9224364.1648364.4165364.6749364.9466365.2431365.5668365.9138366.2762366.6491
367.0381367.4553367.9029368.3754368.8656369.3664369.8804 370.416370.9737371.5491
372.1367372.7321373.3341373.9449374.5641375.1904375.8206376.4536377.0871377.7184
378.3464378.9722379.5963380.2194380.8369381.4433382.0386382.6246383.2039383.7787
384.3459384.8986 385.437385.9327386.3206386.7455387.1909387.6441388.2832388.8973
389.3898389.8529390.3049 390.747391.1803391.6074392.0301392.4507392.8673393.2795
393.6873394.0917 394.494 394.894395.2896 395.678396.0587396.4333396.8035397.1703
397.5299397.8763398.2089398.5303398.8452399.1544399.4532399.7343399.9971400.2461
400.4851400.7181400.9383401.1391401.3201 401.485401.6399401.7876401.9226402.0388
402.1351402.2164402.2883402.3531402.4073 402.446402.4693402.4803402.4836402.4825
402.4781402.4715402.4632402.4543402.4449402.4361402.4372402.4588402.5008402.5594
402.6297402.7072402.7963402.9036403.0287403.1675403.3158403.4696403.6262403.7845
403.9438404.1037404.2636404.4241404.5873404.7544404.9265405.1019  405.28405.4599
405.6397405.8201405.9999406.1797 406.359406.5371406.7059406.8564406.9875407.1037
  407.21407.3084407.3914 407.449
Stage Hydrograph TW Check=0
DSS Path=
Use DSS=False
Use Fixed Start Time=True
Fixed Start Date/Time=26JUN2013,04:00
Is Critical Boundary=False
Critical Boundary Flow=
Boundary Location=Mura            ,Mura            ,56.59807,        ,                ,                ,                ,                                
Friction Slope=0.0018,0
Boundary Location=                ,                ,        ,        ,                ,l-flow_area     ,                ,l_bound                         
Friction Slope=0.0012,0
Met Point Raster Parameters=,,,,
Precipitation Mode=Disable
Wind Mode=No Wind Forces
Air Density Mode=
Met BC=Precipitation|Expanded View=0
Met BC=Precipitation|Point Interpolation=Nearest
Met BC=Precipitation|Gridded Source=DSS
Met BC=Evapotranspiration|Expanded View=0
Met BC=Evapotranspiration|Point Interpolation=Nearest
Met BC=Evapotranspiration|Gridded Source=DSS
Met BC=Wind Speed|Expanded View=0
Met BC=Wind Speed|Point Interpolation=Nearest
Met BC=Wind Speed|Gridded Source=DSS
Met BC=Wind Direction|Expanded View=0
Met BC=Wind Direction|Point Interpolation=Nearest
Met BC=Wind Direction|Gridded Source=DSS
Met BC=Wind Velocity X|Expanded View=0
Met BC=Wind Velocity X|Point Interpolation=Nearest
Met BC=Wind Velocity X|Gridded Source=DSS
Met BC=Wind Velocity Y|Expanded View=0
Met BC=Wind Velocity Y|Point Interpolation=Nearest
Met BC=Wind Velocity Y|Gridded Source=DSS
Met BC=Air Density|Mode=Constant
Met BC=Air Density|Expanded View=0
Met BC=Air Density|Constant Value=1.225
Met BC=Air Density|Constant Units=kg/m3
Met BC=Air Density|Point Interpolation=Nearest
Met BC=Air Density|Gridded Source=DSS
Met BC=Air Temperature|Expanded View=0
Met BC=Air Temperature|Point Interpolation=Nearest
Met BC=Air Temperature|Gridded Source=DSS
Met BC=Humidity|Expanded View=0
Met BC=Humidity|Point Interpolation=Nearest
Met BC=Humidity|Gridded Source=DSS
Met BC=Air Pressure|Expanded View=0
Met BC=Air Pressure|Point Interpolation=Nearest
Met BC=Air Pressure|Gridded Source=DSS
Non-Newtonian Method= 0 ,   
Non-Newtonian Constant Vol Conc=0
Non-Newtonian Yield Method= 0 ,   
Non-Newtonian Yield Coef=0, 0
User Yeild=   0
Non-Newtonian Sed Visc= 0 ,   
Non-Newtonian Obrian B=0
User Viscosity=0
User Viscosity Ratio=0
Herschel-Bulkley Coef=0, 0
Clastic Method= 0 ,   
Coulomb Phi=0
Voellmy X=0
Non-Newtonian Hindered FV= 0 
Non-Newtonian FV K=0
Non-Newtonian ds=0
Non-Newtonian Max Cv=0
Non-Newtonian Bulking Method= 0 , 
Non-Newtonian High C Transport= 0 , 
