Geom Title=osnova_qgis
Program Version=6.10
Viewing Rectangle= 575047.027898 , 577284.296102 , 172267.868124 , 170035.524276 

River Reach=Mura            ,Mura            
Reach XY= 19 
     575068.9619172181.177100001     575241.6028     172151.4114
     575492.9575     172072.0363     575757.5414171972.817299999
     576002.2814     171886.8276     576223.8704171794.223200001
     576385.9281171701.618899999     576491.7616     171622.2437
     576597.5951     171516.4102     576700.1214171394.040100001
     576799.3403171212.138699999     576855.5644171093.075999999
     576915.0958170874.794299999     576954.7834     170702.8148
      576984.549     170557.2937     577034.1585170388.621400001
     577093.6899      170272.866     577179.6796     170143.8814
     577262.3621     170057.8916
Rch Text X Y=575617.31195,171650.355725
Reverse River Text= 0 

Type RM Length L Ch R = 1 ,3266.039,101.99,101.62,101.31
XS GIS Cut Line=2
     575133.7399     172245.9824       575108.68       172091.16
Node Last Edited Time=déc/13/2021 09:38:55
#Sta/Elev= 146 
       0     208       1     208       2  208.02       3  208.04       4  208.05
       5  208.07       6  208.13       7   208.2       8  208.23       9  208.43
      10  208.81      11  209.58      12  209.67      13  209.66      15  209.72
      16  209.73      17  209.65      18  209.38      19  209.05      20  208.75
      22  208.13      23  207.99      24  207.94      25  207.93      26  207.94
      27  207.96      28  207.99      30  208.17      31   207.4      32  206.88
   32.11  206.83      33  206.43      34  205.77      35  205.03      36  205.07
      37  205.06      38  205.01      39  205.02      40  205.03      42  205.07
      43  205.08      44  205.08      45  205.04      46  205.04      47  205.03
      48  205.04      49  205.01      50  205.03      51  205.02      52  205.03
      53  205.02      54  205.04      55  205.05      56  205.05      57  205.04
      58  205.04      60  205.02      61     205      62  204.96      64  205.04
      65  205.02      66     205      67  204.99      69  205.01      70  205.01
      71  205.02      73  205.04      74  205.05      75  205.05      76  205.04
      79  205.04      80  205.03      81  205.03      82  205.02      84  205.02
      85  205.03      86  205.07      87  205.03      88  205.01      89     205
      90  204.98      91  204.98      92  204.96      93  204.98      94     205
      95  205.01      96  205.02      97  205.02      99  205.04     100  205.05
     101  205.03     102  205.02     103  205.01     104  204.99     105  205.01
     106  205.02     107  205.04     108  205.12     109  205.02     110  205.01
     111     205     112     205     113  204.99     114     205     115  205.04
     116  204.96     117     205     118  205.01     121  205.16     122  205.23
  122.89  205.35     123  205.36     124  205.32     125  205.57     126  206.35
     127  206.49     128  207.02     129  207.25     130  207.42     131  207.53
     132  207.41     133   207.4     134  207.39     135  207.32     136  207.33
     137  207.29     138  207.34     139  207.27     140  207.09     141  206.95
     142  206.92     143  206.71     144  206.46     145  206.31     146  205.96
     147   205.9     148  205.87     149   205.9     150  205.81     151  205.95
     152  206.24     153  206.42     154     207     155  207.09     156  207.32
  156.84  207.32
#Mann= 0 ,0,0
Bank Sta=32.11,122.89
XS Rating Curve= 0 ,0
XS HTab Horizontal Distribution= 5 , 5 , 5 
Exp/Cntr=0.3,0.1

Type RM Length L Ch R = 1 ,3164.414,104.63,100.24,95.66
XS GIS Cut Line=2
     575236.1338     172238.4418     575208.3525      172074.929
Node Last Edited Time=déc/13/2021 09:38:55
#Sta/Elev= 138 
       0  207.48       1  207.44       2  207.44       3  207.45       4  207.46
       5  207.51       6  207.53       7  207.62       8  207.52       9  207.51
      10  207.56      11   207.6      13  207.66      14  207.71      15  207.76
      16  207.86      17  208.02      18  208.16      19  208.33      20  208.73
      21  208.98      22   209.5      23  209.77      24  209.75      25  209.82
      26  209.71      27  209.61      28  209.42      29  209.12      30  208.79
      31   208.5      32  208.33      34  208.11      35  208.01      36  207.88
      37   207.7      38  207.09      39  207.09   39.68  206.82      40   206.7
      41  206.48      42  205.36      43  205.28      44  204.92      45  204.91
      46   204.9      47  204.88      48  204.86      49  204.88      50  204.87
      51  204.89      52   204.9      53  204.91      54  204.92      56  204.92
      57  204.93      60  204.93      61  204.94      64  204.94      65  204.93
      66   204.9      67   204.9      68  204.89      72  204.89      73  204.87
      78  204.87      79  204.88      83  204.88      84  204.87      90  204.87
      91  204.88      93  204.88      94  204.89      96  204.89      97   204.9
     101   204.9     102  204.88     103  204.87     104  204.87     105  204.88
     106  204.88     108   204.9     109  204.91     110  204.91     112  204.93
     113  204.92     114  204.92     115  204.93     116  204.93     117  204.92
     119  204.92     120  204.91     121  204.92     122  204.92     123  204.91
     125  204.91     126   204.9     127  204.91     128  204.83     129  204.86
     130  204.88     131   204.9     132  204.93  132.71  204.94     133  204.95
     134  204.97     135  204.93     136   205.1     137  205.61     138  206.49
     139  206.77     140  206.83     141  206.93     142  206.85     143  206.85
     144  206.84     145  206.85     146  206.88     147  206.94     148  207.01
     149  207.62     150  208.26     151  208.85     152  209.32     153  210.27
     154  211.11     155  211.88     156  212.56     157  213.33     158  213.86
     159   214.4     160  214.99     161  215.54     162  216.29     163  217.07
     164  217.77     165  218.54  165.86  219.59
#Mann= 0 ,0,0
Bank Sta=39.68,132.71
XS Rating Curve= 0 ,0
XS HTab Horizontal Distribution= 5 , 5 , 5 
Exp/Cntr=0.3,0.1

Type RM Length L Ch R = 1 ,3064.175,133.76,128.14,122.43
XS GIS Cut Line=2
     575338.5278     172203.5167     575298.4433     172053.4977
Node Last Edited Time=déc/13/2021 09:38:55
#Sta/Elev= 153 
       0   208.6       1   208.6       2  208.59       3  208.56       4  208.58
       5  208.57       6  208.55       7  208.54       8  208.55       9  208.57
      10  208.57      11  208.53      12   208.5      13  208.59      14  208.66
      15  208.65      16  208.41      17  208.41      18  208.45      20  208.51
      21  208.55      22  208.49      23  209.48      24  209.49      25  209.48
      26  208.87      27  208.27      28  207.79      29  207.42      30  207.29
      31  207.05      32  206.65   32.66  206.25      33  206.04      34  204.73
      35  204.71      36  204.71      37  204.69      38  204.68      39  204.66
      40  204.67      41  204.71      42   204.7      43  204.69      44  204.69
      45  204.67      46  204.69      47  204.64      48  204.66      49  204.69
      50  204.67      51   204.7      52   204.7      53  204.67      55  204.67
      56  204.65      57  204.67      58  204.66      59   204.6      60  204.67
      61  204.66      62  204.68      63  204.68      64  204.66      65  204.65
      66  204.63      67  204.62      68   204.7      69  204.68      70  204.71
      71  204.71      72  204.65      73  204.67      75  204.67      76  204.68
      77  204.67      78  204.67      79  204.68      80  204.65      81  204.67
      82  204.62      83  204.64      84  204.63      85  204.66      86  204.71
      87  204.66      88  204.69      89  204.64      90  204.62      91  204.64
      92  204.61      93  204.65      94  204.65      95  204.66      96  204.62
      97  204.62      98  204.68      99  204.65     100  204.65     101  204.64
     102  204.65     104  204.65     105  204.63     107  204.63     108  204.62
     109  204.61     110  204.62     111  204.59     112  204.58     113  204.66
     114  204.63     115  204.58     116  204.59     117   204.6     118   204.6
     120  204.62     121  204.62     122  204.65     123  204.94  123.95  205.17
     124  205.18     125  205.43     126  205.94     127  206.49     128  206.94
     129  207.15     130  207.38     131  207.45     132  207.45     133  207.68
     134  207.87     135  207.96     136   208.1     137  208.42     138  209.22
     139  209.76     140  210.55     141  211.16     142  212.06     143  212.79
     144  213.48     145  214.45     146  215.54     147  216.49     148  217.37
     149  218.16     150  219.38     151  220.02     152  220.24     153  220.59
     154  220.58     155  220.59  155.28  220.59
#Mann= 0 ,0,0
Bank Sta=32.66,123.95
XS Rating Curve= 0 ,0
XS HTab Horizontal Distribution= 5 , 5 , 5 
Exp/Cntr=0.3,0.1

Type RM Length L Ch R = 1 ,2936.030,71.36,72.52,73.79
XS GIS Cut Line=2
     575467.1155172153.907199999       575415.39       172027.83
Node Last Edited Time=déc/13/2021 09:38:55
#Sta/Elev= 126 
       0  209.35       1  209.37       2  209.37       3  209.33       4  209.27
       5   209.2       6  209.12       7   209.1       8  209.13       9  209.17
      11  209.17      12  209.21      13  209.24      14  209.34      15  209.34
      16  209.36      17  209.42      18  209.44      19  209.32      20  209.24
      21  209.25      22   209.3      24   209.3      25  209.37      26  209.39
      27  209.12      28  209.12      29  208.55      30  207.36   30.97  207.18
      31  207.17      32  207.03      33  206.36      34  206.32      35  205.36
      36  204.89      37  204.61      38  204.53      39  204.48      40  204.48
      41  204.49      42  204.49      43  204.44      44  204.47      47  204.47
      48  204.48      49  204.47      53  204.47      54  204.49      55  204.49
      56  204.51      57  204.49      58  204.48      59  204.47      60  204.49
      61   204.5      62  204.49      63  204.46      64  204.47      65  204.47
      66  204.48      67  204.49      68  204.49      69  204.51      70  204.51
      71  204.49      72  204.48      73  204.51      74  204.52      75  204.52
      76  204.49      77  204.52      78   204.5      79   204.6      80   204.5
      82   204.5      83  204.47      84  204.49      85  204.48      86  204.47
      87   204.5      88   204.5      89  204.48      90  204.47      91  204.49
      92  204.51      93  204.48      95  204.48      96  204.49      98  204.49
      99  204.46     101  204.48     102  204.48     103  204.49     104  204.51
     105  204.48     106  204.49     108  204.49     109  204.47     110  204.48
     113  204.48     114   204.5     115  204.51     116  204.53  116.09  204.54
     117  204.61     118  204.79     119  205.13     120  205.95     121  206.48
     122   206.4     123  206.78     124  206.93     125  207.18     126  207.33
     127  207.64     128  207.79     129  208.04     130   208.6     131  209.21
     132  210.14     133   210.9     134  211.66     135  211.45     136  212.48
  136.28  213.19
#Mann= 0 ,0,0
Bank Sta=30.97,116.09
XS Rating Curve= 0 ,0
XS HTab Horizontal Distribution= 5 , 5 , 5 
Exp/Cntr=0.3,0.1

Type RM Length L Ch R = 1 ,2863.510,98.18,100.5,103.55
XS GIS Cut Line=2
     575533.3938172130.094699999     575482.1968     171994.3632
Node Last Edited Time=déc/13/2021 09:38:55
#Sta/Elev= 131 
       0  211.11       1  211.04       2  211.21       3  211.22       4  211.16
       5  210.93       6  211.14       7  210.34       8  210.62       9  210.75
      10  210.38      11  210.73      12  211.12      13  211.38      14  211.38
      15  211.45      16  211.54      17  211.31      18  211.49      19  211.61
      20  211.63      21  211.63      22  210.62      23   211.7      24  211.01
      25  211.27      26  211.75      27  211.74      28  211.75      29  211.79
      30  211.78      32  211.84   32.34  211.83      33  211.82      34  211.85
      35  211.86      36  204.48      37  204.32      38  204.36      39  207.09
      40  206.73      41  204.42      42  204.39      43  205.34      44   206.3
      45   206.3      46  206.69      47  205.93      48  206.04      49  205.49
      50   204.4      51  204.37      52  204.35      53  204.38      54  204.31
      55  204.38      59  204.38      61   204.4      62  204.39      64  204.39
      65  204.38      67   204.4      69  204.38      70  204.38      71  204.35
      72  204.38      73  204.39      74  204.39      75  204.41      76  204.39
      77  204.39      78   204.4      80   204.4      82  204.38      84   204.4
      86  204.38      87  204.38      88  204.39      89  204.38      91  204.38
      92   204.4      95   204.4      96  204.37      97  204.39      98  204.38
      99  204.38     100  204.37     101  204.34     102  204.36     103  204.37
     104  204.37     105  204.38     106  204.39     108  204.39     109  204.38
     111   204.4     112  204.37     113  204.38     114  204.38     116   204.4
     117  204.39     118   204.4     119  204.41  119.72  204.46     120  204.48
     121  204.67     122  205.28     123  205.28     124  206.07     125  206.45
     126   206.6     127  206.73     128  207.01     129  207.89     130  208.35
     131  208.66     132  208.77     133  208.83     134  209.84     135  210.81
     136  211.74     137  211.68     138  211.59     139  211.59     140  211.53
     141  211.52     142  211.51     143  211.49     144  211.46     145  211.43
  145.07  211.43
#Mann= 0 ,0,0
Bank Sta=32.34,119.72
XS Rating Curve= 0 ,0
XS HTab Horizontal Distribution= 5 , 5 , 5 
Exp/Cntr=0.3,0.1

Type RM Length L Ch R = 1 ,2763.015,103.81,100.94,97.48
XS GIS Cut Line=2
       575620.85172087.560000001       575582.62       171963.65
Node Last Edited Time=déc/13/2021 09:38:55
#Sta/Elev= 119 
       0  207.65       1   207.7       2  207.74       3  207.76       4  207.76
       5  208.04       6  208.25       7  208.65       8  208.91       9  209.06
      10  209.21      11  209.17      12  209.19      13   209.1      14  208.71
      15   208.4      16  208.07      17  207.76      18  207.61      19  207.25
      20  206.73      21  205.87   21.34  205.71      22  205.39      23  204.93
      24  204.51      25  204.31      26  204.27      27  204.22      28  204.24
      29  204.24      30  204.22      31  204.24      33  204.24      34  204.27
      35  204.23      36  204.25      37  204.24      38  204.29      39  204.25
      40  204.26      41  204.24      42  204.23      43  204.23      44  204.25
      45  204.24      46  204.21      47  204.24      48  204.23      49  204.23
      50  204.26      51  204.24      53  204.24      54  204.25      55  204.25
      56  204.24      57  204.23      58  204.24      59  204.23      60  204.24
      65  204.24      66  204.23      67  204.23      68  204.24      69  204.23
      70  204.22      71  204.24      72  204.24      73  204.23      74  204.25
      75   204.2      76  204.23      77  204.23      78  204.24      79   204.2
      80  204.24      81  204.24      82  204.23      83  204.24      84  204.23
      85  204.23      87  204.21      88  204.23      93  204.23      94  204.22
      95  204.23      96  204.23      97  204.24      98  204.25      99  204.27
     101  204.27     102  204.25     104  204.25     105  204.54     106  204.75
     107  204.94     108  204.95  108.03  204.95     109  205.08     110  205.17
     111  205.28     112  205.22     113  205.41     114  205.49     115  205.66
     116  206.12     117  206.96     118  207.75     119  208.14     120  208.26
     122   208.3     123   208.3     124  208.27     125  208.21     126  208.21
     127  208.22     128  208.24     129  208.27  129.67  208.29
#Mann= 0 ,0,0
Bank Sta=21.34,108.03
XS Rating Curve= 0 ,0
XS HTab Horizontal Distribution= 5 , 5 , 5 
Exp/Cntr=0.3,0.1

Type RM Length L Ch R = 1 ,2662.072,75.5,77.74,80.24
XS GIS Cut Line=2
       575721.66172055.939999999       575673.31       171932.84
Node Last Edited Time=déc/13/2021 09:38:55
#Sta/Elev= 124 
       0  207.67       1  207.67       2  208.05       3  208.35       4  208.65
       5  208.86       6  208.86       7  208.84       8  208.63       9  208.26
      10  207.93      11  207.47      12  207.31      13  207.25      14  207.23
      15  207.24      16  207.25      17  207.25      18  207.26      19  207.25
      20  207.26      21  207.28      22  207.21      23     207      24  206.68
      25  206.35      26  205.96      27  205.35    27.1  205.32      28  205.06
      29  204.22      30  204.14      31  204.12      32   204.1      33   204.1
      34  204.11      35   204.1      36  204.09      37  204.07      38  204.09
      39   204.1      40   204.1      41  204.09      42  204.11      43  204.11
      44   204.1      47   204.1      48  204.09      49  204.09      50   204.1
      51  204.11      52  204.09      53  204.09      54   204.1      61   204.1
      62  204.09      63  204.11      64   204.1      65  204.11      66  204.11
      67   204.1      69  204.12      70  204.11      71  204.11      72  204.12
      73  204.12      74  204.09      75   204.1      76   204.1      78  204.12
      79  204.11      80  204.11      81  204.09      82  204.13      83  204.12
      85   204.1      86  204.12      87   204.1      88   204.1      89  204.12
      90  204.12      91  204.11      92  204.11      93  204.12      94  204.13
      95  204.12      96  204.13      97  204.12      98  204.11      99  204.12
     100  204.12     101  204.13     102  204.13     103  204.12     104  204.13
     105  204.12     106  204.12     107  204.13     108  204.14     109  204.25
  109.29  204.41     110  204.81     111  205.67     112  206.26     113  206.51
     114   206.7     115  207.43     116  207.85     118  207.91     119  208.02
     120  207.85     121  207.85     122  207.82     123  207.79     124  207.77
     125  207.75     126  207.71     127   207.7     128  207.68     129   207.7
     130  207.74     131   207.7     132  207.71  132.25  207.71
#Mann= 0 ,0,0
Bank Sta=27.1,109.29
XS Rating Curve= 0 ,0
XS HTab Horizontal Distribution= 5 , 5 , 5 
Exp/Cntr=0.3,0.1

Type RM Length L Ch R = 1 ,2584.336,128.58,120.51,119.76
XS GIS Cut Line=2
       575791.56172031.800000001       575749.89       171904.77
Node Last Edited Time=déc/13/2021 09:38:55
#Sta/Elev= 126 
       0  207.66       1  207.88       2  208.25       3  208.74       4  208.74
       5  208.84       6  208.87       7  208.88       8  208.86       9  208.48
      11  207.86      12  207.51      13  207.43      14  207.38      15  207.38
      16  207.35      17  207.34      18  207.32      19  207.32      20  207.33
      21   207.3      22  207.14      23  206.91      24  206.91      25  206.65
      26  206.32   26.54   206.1      27  205.91      28  205.38      29  204.74
      30  204.15      31  204.02      32     204      33  204.01      34  204.01
      35     204      36     204      37  204.02      38  204.02      39  203.99
      41  204.01      43  204.01      44     204      45     204      46  203.99
      47  204.01      48  204.02      49     204      50  204.01      51     204
      52  204.01      53     204      54  204.01      56  204.01      57     204
      58  204.01      59     204      60  204.01      61  204.01      62     204
      63  204.01      64  203.99      66  203.99      67  204.02      68     204
      69  204.01      70  204.01      71  204.02      72  204.01      74  204.01
      75     204      76  204.01      77  203.98      78     204      79     204
      80  204.01      81  204.01      82  203.98      83     204      84  203.99
      85  203.99      86  204.01      87  204.01      88  203.99      89     204
      90     204      91  204.01      92  204.01      93     204      94  204.01
      96  203.99      97  203.99      98  204.01     100  203.99     101     204
     102  203.99     103  204.01     105  204.01     106  203.99     108  204.01
     109  204.01  109.78     204     110     204     111  204.01     112  204.07
     113   204.7     114  205.02     115  205.58     116  205.82     117  206.37
     118  207.04     119  207.51     120   207.7     121  207.75     122  207.71
     123  207.68     124  207.71     125  207.71     127  207.73     128  207.74
     129  207.76     130  207.65     131  207.77     132  207.86     133  207.94
  133.69  207.89
#Mann= 0 ,0,0
Bank Sta=26.54,109.78
XS Rating Curve= 0 ,0
XS HTab Horizontal Distribution= 5 , 5 , 5 
Exp/Cntr=0.3,0.1

Type RM Length L Ch R = 1 ,2463.823,100.59,100.63,100.77
XS GIS Cut Line=2
         575907.       171992.93        575861.1       171861.59
Node Last Edited Time=déc/13/2021 09:38:55
#Sta/Elev= 116 
       0  207.32       1  207.72       2  207.72       3  207.94       4  208.39
       5  208.46       6  208.61       7   208.7       8  208.72       9  208.63
      10  208.29      11  208.04      12  207.63      13   207.3      14   207.1
      15  207.03      16  207.04      17  207.06      18  207.07      19  207.01
      20  206.93      21  206.88      22   206.9      23  207.12      24  207.11
      25  206.97      26   206.7      27  206.57      28  205.92      29  205.56
   29.31  205.51      30   205.4      31  204.35      32  203.99      33  203.87
      34  203.86      36  203.86      37  203.87      38  203.86      39  203.86
      40  203.85      41  203.87      42  203.87      43  203.85      44  203.86
      45  203.85      46  203.87      47  203.85      48  203.85      49  203.86
      50  203.85      51  203.86      52  203.85      60  203.85      61  203.87
      62  203.84      63  203.86      64  203.85      65  203.86      66  203.86
      67  203.85      68  203.85      69  203.88      70  203.85      71  203.85
      73  203.87      74  203.85      82  203.85      83  203.84      84  203.85
      85  203.84      86  203.85      93  203.85      94  203.84      95  203.83
      96  203.81      97  203.84      98  203.85      99  203.85     100  203.84
     101  203.85     104  203.85     105  203.86     106  203.86     107  203.85
     109  203.85     110  203.86     111  203.86     112  203.88     113  203.87
     114  203.86     115  203.86  115.33  203.87     116  203.88     117  204.45
     118  205.07     119  205.54     120  206.07     121  206.43     122  206.99
     123  207.33     124  207.63     125  207.65     127  207.65     128  207.77
     129  208.02     130  208.03     131   207.6     132  207.36     133  207.31
     134  207.29     136  207.21     137  207.14     138  207.11     139   207.1
  139.13   207.1
#Mann= 0 ,0,0
Bank Sta=29.31,115.33
XS Rating Curve= 0 ,0
XS HTab Horizontal Distribution= 5 , 5 , 5 
Exp/Cntr=0.3,0.1

Type RM Length L Ch R = 1 ,2363.189,102.12,100.29,99.21
XS GIS Cut Line=2
       576001.14        171957.6       575955.85       171827.32
Node Last Edited Time=déc/13/2021 09:38:55
#Sta/Elev= 113 
       0  207.89       1  208.21       2  208.46       3  208.64       4  208.69
       5  208.72       6  208.69       7  208.44       8  208.44       9  208.14
      10  207.65      11  207.38      12  207.21      13  207.03      14  207.02
      15  207.04      16  207.05      17  207.07      18   207.1      19  207.12
      20   207.2      21  207.21      22   207.1      23  207.07      24  206.68
      25  206.57      26  206.33      27  205.96      28  205.52      29  205.27
   29.04  205.25      30  204.62      31  203.87      32  203.71      35  203.71
      36   203.7      37   203.7      38  203.71      43  203.71      44   203.7
      49   203.7      50  203.69      51  203.69      52   203.7      58   203.7
      59  203.71      60  203.71      61   203.7      63   203.7      64  203.69
      65   203.7      71   203.7      72  203.71      73  203.69      74  203.72
      75   203.7      76  203.71      77  203.69      78   203.7      79  203.71
      80  203.69      81  203.68      82  203.68      83  203.69      84  203.68
      85   203.7      86   203.7      87  203.69      88  203.69      89   203.7
      90   203.7      91  203.71      92   203.7      93  203.69      94  203.68
      95  203.68      96  203.69      98  203.69      99  203.68     102  203.68
     103  203.69     108  203.69     109  203.68     110  203.68     111   203.7
     112  203.68     113  203.69     114  203.68     115  203.69     116  203.69
  116.39   203.8     117  203.96     118  204.38     119     205     120  205.85
     121  206.26     122  206.49     123  206.79     124  207.13     125  207.45
     126  207.52     127  207.51     128  207.43     129  207.28     130  207.23
     131  207.23     132  207.43     133  207.53     134  207.53     135  207.98
     136  208.25     137  208.54  137.93  209.16
#Mann= 0 ,0,0
Bank Sta=29.04,116.39
XS Rating Curve= 0 ,0
XS HTab Horizontal Distribution= 5 , 5 , 5 
Exp/Cntr=0.3,0.1

Type RM Length L Ch R = 1 ,2262.898,54.34,52.04,51.28
XS GIS Cut Line=2
         576098.171926.640000001       576048.36       171792.74
Node Last Edited Time=déc/13/2021 09:38:55
#Sta/Elev= 133 
       0  207.02       1  207.64       2  207.77       3  208.19       4  208.38
       5  208.39       6  208.43       7  208.47       8  208.49       9  208.42
      10   208.3      11  208.08      12  207.59      13  207.28      14  207.01
      15  206.84      16  206.81      17  206.76      18  206.68      19  206.58
      20   206.4      21  206.09      22  206.09      24  205.93      25  205.83
      26  205.65      27  205.58      28  205.25   28.89  205.14      29  205.13
      30  204.57      31  204.02      32  203.57      33  203.54      34  203.54
      35  203.56      36  203.57      37  203.57      38  203.58      39  203.57
      40  203.59      41  203.59      42  203.57      43  203.58      44  203.58
      45  203.57      46  203.55      47  203.51      48  203.44      49  203.44
      50  203.46      51  203.46      52  203.49      53  203.48      54  203.48
      55  203.47      58  203.47      59  203.46      60  203.47      61  203.47
      62  203.46      64  203.48      65  203.46      68  203.46      69  203.48
      70  203.43      71  203.46      72  203.49      73   203.4      74  203.45
      75  203.41      76  203.43      77  203.45      78  203.44      79  203.46
      80  203.46      81  203.48      82  203.47      83  203.51      84  203.46
      86  203.46      87  203.49      88  203.48      89  203.49      90  203.48
      91  203.49      92  203.49      93  203.48      94  203.48      95  203.49
      96  203.48      97  203.49      98  203.48      99  203.49     100  203.48
     101  203.49     102  203.49     103  203.48     105  203.48     106  203.51
     107  203.49     109  203.49     110  203.48     112  203.48     113   203.5
     114  203.49     116  203.49     117  203.48     119  203.48     120  203.47
     121   203.5  121.93   203.5     122   203.5     123   203.8     124   204.7
     125  205.05     126   205.7     127  206.23     128  206.56     129  207.04
     130  207.46     131  207.29     132  207.16     133  207.07     134  207.07
     135  206.99     137  206.99     138  207.12     139  207.21     140  207.13
     141  207.16     142   207.1  142.81  207.08
#Mann= 0 ,0,0
Bank Sta=28.89,121.93
XS Rating Curve= 0 ,0
XS HTab Horizontal Distribution= 5 , 5 , 5 
Exp/Cntr=0.3,0.1

Type RM Length L Ch R = 1 ,2210.857,49.67,48.22,46.98
XS GIS Cut Line=2
       576143.31       171896.42       576096.26171775.359999999
Node Last Edited Time=déc/13/2021 09:38:55
#Sta/Elev= 119 
       0  207.07       1   206.9       2  206.84       3  206.86       4  206.89
       5  206.93       6  206.97       7  206.97       8  207.03       9  207.03
      10  207.04      11  207.06      12  207.09      13  206.83    13.3  206.73
      14  206.49      15   205.8      16  204.93      17  204.08      18  203.41
      19  203.38      20  203.39      22  203.39      23   203.4      25  203.38
      26   203.4      27  203.43      28  203.46      29   203.6      30  203.79
      31  204.18      32  204.48      33  204.71      34  204.68      35  203.79
      36  203.43      37   203.4      40   203.4      41  203.41      42  203.42
      43  203.39      44  203.41      45  203.42      46  203.42      47   203.4
      48  203.39      49  203.43      50  203.41      51  203.39      52  203.42
      53  203.42      54  203.43      55   203.4      57   203.4      58  203.41
      59   203.4      60  203.43      61  203.41      63  203.41      64  203.43
      65  203.42      66  203.42      67  203.43      68   203.4      69  203.42
      71  203.42      72  203.41      74  203.43      75  203.41      76   203.4
      77  203.41      78  203.41      79   203.4      80  203.39      81  203.41
      82  203.42      83  203.42      84   203.4      86   203.4      87  203.42
      88  203.42      89   203.4      90  203.41      92  203.41      93  203.42
      94  203.41      95  203.43      96  203.41      98  203.41      99  203.42
     100  203.41     101   203.4     102  203.41     103  203.41     104  203.43
     105  203.41     106   203.4     107   203.4     108  203.43     109   203.4
  109.26  203.46     110  203.63     111  204.18     113  205.22     114  205.75
     115  206.04     116  206.15     117  206.74     118  207.16     119  207.06
     120  207.04     121  206.93     122  206.76     123  206.72     124  206.73
     126  206.71     128  206.71     129  206.76  129.88  206.75
#Mann= 0 ,0,0
Bank Sta=13.3,109.26
XS Rating Curve= 0 ,0
XS HTab Horizontal Distribution= 5 , 5 , 5 
Exp/Cntr=0.3,0.1

Type RM Length L Ch R = 1 ,2162.639,105.26,101.57,98.25
XS GIS Cut Line=2
       576194.42171889.119999999       576138.52       171756.16
Node Last Edited Time=déc/13/2021 09:38:55
#Sta/Elev= 141 
       0  207.85       1  208.13       2  208.35       3  208.28       5  208.16